
---------- Begin Simulation Statistics ----------
final_tick                               101115537592001                       # Number of ticks from beginning of simulation (restored from checkpoints and never reset)
host_inst_rate                                2547716                       # Simulator instruction rate (inst/s)
host_mem_usage                                1731084                       # Number of bytes of host memory used
host_op_rate                                  2626966                       # Simulator op (including micro ops) rate (op/s)
host_seconds                                  2550.08                       # Real time elapsed on the host
host_tick_rate                              100128120                       # Simulator tick rate (ticks/s)
sim_freq                                 1000000000000                       # Frequency of simulated ticks
sim_insts                                  6496870772                       # Number of instructions simulated
sim_ops                                    6698964917                       # Number of ops (including micro ops) simulated
sim_seconds                                  0.255334                       # Number of seconds simulated
sim_ticks                                255334374501                       # Number of ticks simulated
system.cpu0.committedInsts                          0                       # Number of instructions committed
system.cpu0.dtb.rdAccesses                          0                       # TLB accesses on read requests
system.cpu0.dtb.rdMisses                            0                       # TLB misses on read requests
system.cpu0.dtb.wrAccesses                          0                       # TLB accesses on write requests
system.cpu0.dtb.wrMisses                            0                       # TLB misses on write requests
system.cpu0.itb.rdAccesses                          0                       # TLB accesses on read requests
system.cpu0.itb.rdMisses                            0                       # TLB misses on read requests
system.cpu0.itb.wrAccesses                          0                       # TLB accesses on write requests
system.cpu0.itb.wrMisses                            0                       # TLB misses on write requests
system.cpu0.kern.inst.arm                           0                       # number of arm instructions executed
system.cpu0.kern.inst.quiesce                       0                       # number of quiesce instructions executed
system.cpu0.numCoalescedMMIO                        0                       # number of coalesced memory mapped IO requests
system.cpu0.numCycles                               0                       # number of cpu cycles simulated
system.cpu0.numExitSignal                           0                       # exits due to signal delivery
system.cpu0.numHalt                                 0                       # number of VM exits due to wait for interrupt instructions
system.cpu0.numHypercalls                           0                       # number of hypercalls
system.cpu0.numIO                                   0                       # number of VM exits due to legacy IO
system.cpu0.numInterrupts                           0                       # number of interrupts delivered
system.cpu0.numMMIO                                 0                       # number of VM exits due to memory mapped IO
system.cpu0.numVMExits                              0                       # total number of KVM exits
system.cpu0.numVMHalfEntries                        0                       # number of KVM entries to finalize pending operations
system.cpu0.numWorkItemsCompleted                   0                       # number of work items this cpu completed
system.cpu0.numWorkItemsStarted                     0                       # number of work items this cpu started
system.cpu1.committedInsts                          0                       # Number of instructions committed
system.cpu1.dtb.rdAccesses                          0                       # TLB accesses on read requests
system.cpu1.dtb.rdMisses                            0                       # TLB misses on read requests
system.cpu1.dtb.wrAccesses                          0                       # TLB accesses on write requests
system.cpu1.dtb.wrMisses                            0                       # TLB misses on write requests
system.cpu1.itb.rdAccesses                          0                       # TLB accesses on read requests
system.cpu1.itb.rdMisses                            0                       # TLB misses on read requests
system.cpu1.itb.wrAccesses                          0                       # TLB accesses on write requests
system.cpu1.itb.wrMisses                            0                       # TLB misses on write requests
system.cpu1.kern.inst.arm                           0                       # number of arm instructions executed
system.cpu1.kern.inst.quiesce                       0                       # number of quiesce instructions executed
system.cpu1.numCoalescedMMIO                        0                       # number of coalesced memory mapped IO requests
system.cpu1.numCycles                               0                       # number of cpu cycles simulated
system.cpu1.numExitSignal                           0                       # exits due to signal delivery
system.cpu1.numHalt                                 0                       # number of VM exits due to wait for interrupt instructions
system.cpu1.numHypercalls                           0                       # number of hypercalls
system.cpu1.numIO                                   0                       # number of VM exits due to legacy IO
system.cpu1.numInterrupts                           0                       # number of interrupts delivered
system.cpu1.numMMIO                                 0                       # number of VM exits due to memory mapped IO
system.cpu1.numVMExits                              0                       # total number of KVM exits
system.cpu1.numVMHalfEntries                        0                       # number of KVM entries to finalize pending operations
system.cpu1.numWorkItemsCompleted                   0                       # number of work items this cpu completed
system.cpu1.numWorkItemsStarted                     0                       # number of work items this cpu started
system.cpu2.committedInsts                          0                       # Number of instructions committed
system.cpu2.dtb.rdAccesses                          0                       # TLB accesses on read requests
system.cpu2.dtb.rdMisses                            0                       # TLB misses on read requests
system.cpu2.dtb.wrAccesses                          0                       # TLB accesses on write requests
system.cpu2.dtb.wrMisses                            0                       # TLB misses on write requests
system.cpu2.itb.rdAccesses                          0                       # TLB accesses on read requests
system.cpu2.itb.rdMisses                            0                       # TLB misses on read requests
system.cpu2.itb.wrAccesses                          0                       # TLB accesses on write requests
system.cpu2.itb.wrMisses                            0                       # TLB misses on write requests
system.cpu2.kern.inst.arm                           0                       # number of arm instructions executed
system.cpu2.kern.inst.quiesce                       0                       # number of quiesce instructions executed
system.cpu2.numCoalescedMMIO                        0                       # number of coalesced memory mapped IO requests
system.cpu2.numCycles                               0                       # number of cpu cycles simulated
system.cpu2.numExitSignal                           0                       # exits due to signal delivery
system.cpu2.numHalt                                 0                       # number of VM exits due to wait for interrupt instructions
system.cpu2.numHypercalls                           0                       # number of hypercalls
system.cpu2.numIO                                   0                       # number of VM exits due to legacy IO
system.cpu2.numInterrupts                           0                       # number of interrupts delivered
system.cpu2.numMMIO                                 0                       # number of VM exits due to memory mapped IO
system.cpu2.numVMExits                              0                       # total number of KVM exits
system.cpu2.numVMHalfEntries                        0                       # number of KVM entries to finalize pending operations
system.cpu2.numWorkItemsCompleted                   0                       # number of work items this cpu completed
system.cpu2.numWorkItemsStarted                     0                       # number of work items this cpu started
system.cpu3.committedInsts                          0                       # Number of instructions committed
system.cpu3.dtb.rdAccesses                          0                       # TLB accesses on read requests
system.cpu3.dtb.rdMisses                            0                       # TLB misses on read requests
system.cpu3.dtb.wrAccesses                          0                       # TLB accesses on write requests
system.cpu3.dtb.wrMisses                            0                       # TLB misses on write requests
system.cpu3.itb.rdAccesses                          0                       # TLB accesses on read requests
system.cpu3.itb.rdMisses                            0                       # TLB misses on read requests
system.cpu3.itb.wrAccesses                          0                       # TLB accesses on write requests
system.cpu3.itb.wrMisses                            0                       # TLB misses on write requests
system.cpu3.kern.inst.arm                           0                       # number of arm instructions executed
system.cpu3.kern.inst.quiesce                       0                       # number of quiesce instructions executed
system.cpu3.numCoalescedMMIO                        0                       # number of coalesced memory mapped IO requests
system.cpu3.numCycles                               0                       # number of cpu cycles simulated
system.cpu3.numExitSignal                           0                       # exits due to signal delivery
system.cpu3.numHalt                                 0                       # number of VM exits due to wait for interrupt instructions
system.cpu3.numHypercalls                           0                       # number of hypercalls
system.cpu3.numIO                                   0                       # number of VM exits due to legacy IO
system.cpu3.numInterrupts                           0                       # number of interrupts delivered
system.cpu3.numMMIO                                 0                       # number of VM exits due to memory mapped IO
system.cpu3.numVMExits                              0                       # total number of KVM exits
system.cpu3.numVMHalfEntries                        0                       # number of KVM entries to finalize pending operations
system.cpu3.numWorkItemsCompleted                   0                       # number of work items this cpu completed
system.cpu3.numWorkItemsStarted                     0                       # number of work items this cpu started
system.pc.south_bridge.ide.disks.dma_read_bytes            0                       # Number of bytes transfered via DMA reads (not PRD).
system.pc.south_bridge.ide.disks.dma_read_full_pages            0                       # Number of full page size DMA reads (not PRD).
system.pc.south_bridge.ide.disks.dma_read_txs            0                       # Number of DMA read transactions (not PRD).
system.pc.south_bridge.ide.disks.dma_write_bytes       131072                       # Number of bytes transfered via DMA writes.
system.pc.south_bridge.ide.disks.dma_write_full_pages           32                       # Number of full page size DMA writes.
system.pc.south_bridge.ide.disks.dma_write_txs           32                       # Number of DMA write transactions.
system.ruby.DMA_Controller.I.allocI_load |           2    100.00%    100.00% |           0      0.00%    100.00%
system.ruby.DMA_Controller.I.allocI_load::total            2                      
system.ruby.DMA_Controller.I.allocI_store |        2048    100.00%    100.00% |           0      0.00%    100.00%
system.ruby.DMA_Controller.I.allocI_store::total         2048                      
system.ruby.DMA_Controller.I.deallocnet0from_in |        1025    100.00%    100.00% |           0      0.00%    100.00%
system.ruby.DMA_Controller.I.deallocnet0from_in::total         1025                      
system.ruby.DMA_Controller.I.deallocnet2from_in |           1    100.00%    100.00% |           0      0.00%    100.00%
system.ruby.DMA_Controller.I.deallocnet2from_in::total            1                      
system.ruby.DMA_Controller.M.allocTBE    |        1026    100.00%    100.00% |           0      0.00%    100.00%
system.ruby.DMA_Controller.M.allocTBE::total         1026                      
system.ruby.DMA_Controller.M.externalstoreMnet1from_in |        2048    100.00%    100.00% |           0      0.00%    100.00%
system.ruby.DMA_Controller.M.externalstoreMnet1from_in::total         2048                      
system.ruby.DMA_Controller.M_evict.Stallmandatory_in |       15287    100.00%    100.00% |           0      0.00%    100.00%
system.ruby.DMA_Controller.M_evict.Stallmandatory_in::total        15287                      
system.ruby.DMA_Controller.S.SloadSEvent |           3    100.00%    100.00% |           0      0.00%    100.00%
system.ruby.DMA_Controller.S.SloadSEvent::total            3                      
system.ruby.DMA_Controller.S.allocTBE    |           2    100.00%    100.00% |           0      0.00%    100.00%
system.ruby.DMA_Controller.S.allocTBE::total            2                      
system.ruby.DMA_Controller.S.deallocTBE  |           1    100.00%    100.00% |           0      0.00%    100.00%
system.ruby.DMA_Controller.S.deallocTBE::total            1                      
system.ruby.DMA_Controller.S.externalloadSnet0from_in |           1    100.00%    100.00% |           0      0.00%    100.00%
system.ruby.DMA_Controller.S.externalloadSnet0from_in::total            1                      
system.ruby.DMA_Controller.S.externalloadSrespfrom_in |           1    100.00%    100.00% |           0      0.00%    100.00%
system.ruby.DMA_Controller.S.externalloadSrespfrom_in::total            1                      
system.ruby.DMA_Controller.S_evict.Stallmandatory_in |           2    100.00%    100.00% |           0      0.00%    100.00%
system.ruby.DMA_Controller.S_evict.Stallmandatory_in::total            2                      
system.ruby.DMA_Controller.SloadSEvent   |           3    100.00%    100.00% |           0      0.00%    100.00%
system.ruby.DMA_Controller.SloadSEvent::total            3                      
system.ruby.DMA_Controller.Stallmandatory_in |       15289    100.00%    100.00% |           0      0.00%    100.00%
system.ruby.DMA_Controller.Stallmandatory_in::total        15289                      
system.ruby.DMA_Controller.allocI_load   |           2    100.00%    100.00% |           0      0.00%    100.00%
system.ruby.DMA_Controller.allocI_load::total            2                      
system.ruby.DMA_Controller.allocI_store  |        2048    100.00%    100.00% |           0      0.00%    100.00%
system.ruby.DMA_Controller.allocI_store::total         2048                      
system.ruby.DMA_Controller.allocTBE      |        1028    100.00%    100.00% |           0      0.00%    100.00%
system.ruby.DMA_Controller.allocTBE::total         1028                      
system.ruby.DMA_Controller.deallocTBE    |           1    100.00%    100.00% |           0      0.00%    100.00%
system.ruby.DMA_Controller.deallocTBE::total            1                      
system.ruby.DMA_Controller.deallocnet0from_in |        1025    100.00%    100.00% |           0      0.00%    100.00%
system.ruby.DMA_Controller.deallocnet0from_in::total         1025                      
system.ruby.DMA_Controller.deallocnet2from_in |           1    100.00%    100.00% |           0      0.00%    100.00%
system.ruby.DMA_Controller.deallocnet2from_in::total            1                      
system.ruby.DMA_Controller.externalloadSnet0from_in |           1    100.00%    100.00% |           0      0.00%    100.00%
system.ruby.DMA_Controller.externalloadSnet0from_in::total            1                      
system.ruby.DMA_Controller.externalloadSrespfrom_in |           1    100.00%    100.00% |           0      0.00%    100.00%
system.ruby.DMA_Controller.externalloadSrespfrom_in::total            1                      
system.ruby.DMA_Controller.externalstoreMnet1from_in |        2048    100.00%    100.00% |           0      0.00%    100.00%
system.ruby.DMA_Controller.externalstoreMnet1from_in::total         2048                      
system.ruby.Directory_Controller.I.allocTBE |     1622423     24.98%     24.98% |     1627708     25.06%     50.04% |     1622903     24.99%     75.03% |     1621803     24.97%    100.00%
system.ruby.Directory_Controller.I.allocTBE::total      6494837                      
system.ruby.Directory_Controller.I.deallocTBE |     1621583     24.98%     24.98% |     1626891     25.06%     50.04% |     1622071     24.99%     75.03% |     1620963     24.97%    100.00%
system.ruby.Directory_Controller.I.deallocTBE::total      6491508                      
system.ruby.Directory_Controller.I_GetML1C1_0.Stallreqto_in |           7     87.50%     87.50% |           0      0.00%     87.50% |           1     12.50%    100.00% |           0      0.00%    100.00%
system.ruby.Directory_Controller.I_GetML1C1_0.Stallreqto_in::total            8                      
system.ruby.Directory_Controller.I_GetSL1C1_0.Stallreqto_in |         152     27.00%     27.00% |         186     33.04%     60.04% |          85     15.10%     75.13% |         140     24.87%    100.00%
system.ruby.Directory_Controller.I_GetSL1C1_0.Stallreqto_in::total          563                      
system.ruby.Directory_Controller.M.allocTBE |      632456     24.91%     24.91% |      636662     25.07%     49.98% |      637054     25.09%     75.07% |      633047     24.93%    100.00%
system.ruby.Directory_Controller.M.allocTBE::total      2539219                      
system.ruby.Directory_Controller.M.deallocTBE |      632852     24.91%     24.91% |      637054     25.07%     49.98% |      637447     25.09%     75.07% |      633445     24.93%    100.00%
system.ruby.Directory_Controller.M.deallocTBE::total      2540798                      
system.ruby.Directory_Controller.M_GetS.Progress |        1147     29.20%     29.20% |         912     23.22%     52.42% |         790     20.11%     72.53% |        1079     27.47%    100.00%
system.ruby.Directory_Controller.M_GetS.Progress::total         3928                      
system.ruby.Directory_Controller.M_GetS.Stallreqto_in |           0      0.00%      0.00% |           0      0.00%      0.00% |          23     33.82%     33.82% |          45     66.18%    100.00%
system.ruby.Directory_Controller.M_GetS.Stallreqto_in::total           68                      
system.ruby.Directory_Controller.M_GetS_WBL1C1_0.Stallreqto_in |          15      5.75%      5.75% |          18      6.90%     12.64% |          58     22.22%     34.87% |         170     65.13%    100.00%
system.ruby.Directory_Controller.M_GetS_WBL1C1_0.Stallreqto_in::total          261                      
system.ruby.Directory_Controller.M_PutML1C1_0.Stallreqto_in |           4     44.44%     44.44% |           0      0.00%     44.44% |           2     22.22%     66.67% |           3     33.33%    100.00%
system.ruby.Directory_Controller.M_PutML1C1_0.Stallreqto_in::total            9                      
system.ruby.Directory_Controller.Progress |        1147     29.20%     29.20% |         912     23.22%     52.42% |         790     20.11%     72.53% |        1079     27.47%    100.00%
system.ruby.Directory_Controller.Progress::total         3928                      
system.ruby.Directory_Controller.S.allocTBE |     1917078     25.26%     25.26% |     1885297     24.84%     50.10% |     1896292     24.98%     75.08% |     1891282     24.92%    100.00%
system.ruby.Directory_Controller.S.allocTBE::total      7589949                      
system.ruby.Directory_Controller.S.deallocTBE |     1917522     25.26%     25.26% |     1885722     24.84%     50.10% |     1896731     24.98%     75.08% |     1891723     24.92%    100.00%
system.ruby.Directory_Controller.S.deallocTBE::total      7591698                      
system.ruby.Directory_Controller.S_GetSL1C1_0.Stallreqto_in |         965     29.90%     29.90% |         799     24.76%     54.66% |         722     22.37%     77.04% |         741     22.96%    100.00%
system.ruby.Directory_Controller.S_GetSL1C1_0.Stallreqto_in::total         3227                      
system.ruby.Directory_Controller.Stallreqto_in |        1143     27.64%     27.64% |        1003     24.25%     51.89% |         891     21.54%     73.43% |        1099     26.57%    100.00%
system.ruby.Directory_Controller.Stallreqto_in::total         4136                      
system.ruby.Directory_Controller.allocTBE |     4171957     25.10%     25.10% |     4149667     24.96%     50.06% |     4156249     25.00%     75.06% |     4146132     24.94%    100.00%
system.ruby.Directory_Controller.allocTBE::total     16624005                      
system.ruby.Directory_Controller.deallocTBE |     4171957     25.10%     25.10% |     4149667     24.96%     50.06% |     4156249     25.00%     75.06% |     4146131     24.94%    100.00%
system.ruby.Directory_Controller.deallocTBE::total     16624004                      
system.ruby.IFETCH.hit_latency_hist_seqr::bucket_size            1                      
system.ruby.IFETCH.hit_latency_hist_seqr::max_bucket            9                      
system.ruby.IFETCH.hit_latency_hist_seqr::samples    386152552                      
system.ruby.IFETCH.hit_latency_hist_seqr |   386152552    100.00%    100.00% |           0      0.00%    100.00% |           0      0.00%    100.00% |           0      0.00%    100.00% |           0      0.00%    100.00% |           0      0.00%    100.00% |           0      0.00%    100.00% |           0      0.00%    100.00% |           0      0.00%    100.00% |           0      0.00%    100.00%
system.ruby.IFETCH.hit_latency_hist_seqr::total    386152552                      
system.ruby.IFETCH.latency_hist_seqr::bucket_size            1                      
system.ruby.IFETCH.latency_hist_seqr::max_bucket            9                      
system.ruby.IFETCH.latency_hist_seqr::samples    386682380                      
system.ruby.IFETCH.latency_hist_seqr     |   386682380    100.00%    100.00% |           0      0.00%    100.00% |           0      0.00%    100.00% |           0      0.00%    100.00% |           0      0.00%    100.00% |           0      0.00%    100.00% |           0      0.00%    100.00% |           0      0.00%    100.00% |           0      0.00%    100.00% |           0      0.00%    100.00%
system.ruby.IFETCH.latency_hist_seqr::total    386682380                      
system.ruby.IFETCH.miss_latency_hist_seqr::bucket_size            1                      
system.ruby.IFETCH.miss_latency_hist_seqr::max_bucket            9                      
system.ruby.IFETCH.miss_latency_hist_seqr::samples       529828                      
system.ruby.IFETCH.miss_latency_hist_seqr |      529828    100.00%    100.00% |           0      0.00%    100.00% |           0      0.00%    100.00% |           0      0.00%    100.00% |           0      0.00%    100.00% |           0      0.00%    100.00% |           0      0.00%    100.00% |           0      0.00%    100.00% |           0      0.00%    100.00% |           0      0.00%    100.00%
system.ruby.IFETCH.miss_latency_hist_seqr::total       529828                      
system.ruby.L1Cache_Controller.I.allocI_load |     1472630     25.16%     25.16% |     1451394     24.80%     49.96% |     1478578     25.26%     75.22% |     1450360     24.78%    100.00%
system.ruby.L1Cache_Controller.I.allocI_load::total      5852962                      
system.ruby.L1Cache_Controller.I.allocI_store |      603882     25.13%     25.13% |      605778     25.21%     50.35% |      596951     24.85%     75.19% |      596073     24.81%    100.00%
system.ruby.L1Cache_Controller.I.allocI_store::total      2402684                      
system.ruby.L1Cache_Controller.I.deallocnet0from_in |      637401     25.15%     25.15% |      638230     25.18%     50.34% |      629319     24.83%     75.17% |      629307     24.83%    100.00%
system.ruby.L1Cache_Controller.I.deallocnet0from_in::total      2534257                      
system.ruby.L1Cache_Controller.I.deallocnet1from_in |           2     40.00%     40.00% |           0      0.00%     40.00% |           1     20.00%     60.00% |           2     40.00%    100.00%
system.ruby.L1Cache_Controller.I.deallocnet1from_in::total            5                      
system.ruby.L1Cache_Controller.I.deallocnet2from_in |     1438091     25.15%     25.15% |     1417934     24.80%     49.95% |     1445212     25.28%     75.23% |     1416125     24.77%    100.00%
system.ruby.L1Cache_Controller.I.deallocnet2from_in::total      5717362                      
system.ruby.L1Cache_Controller.I_evict.Progress |           2     40.00%     40.00% |           0      0.00%     40.00% |           1     20.00%     60.00% |           2     40.00%    100.00%
system.ruby.L1Cache_Controller.I_evict.Progress::total            5                      
system.ruby.L1Cache_Controller.I_evict.Stallmandatory_in |           6     50.00%     50.00% |           0      0.00%     50.00% |           3     25.00%     75.00% |           3     25.00%    100.00%
system.ruby.L1Cache_Controller.I_evict.Stallmandatory_in::total           12                      
system.ruby.L1Cache_Controller.I_store.Progress |           0      0.00%      0.00% |           2    100.00%    100.00% |           0      0.00%    100.00% |           0      0.00%    100.00%
system.ruby.L1Cache_Controller.I_store.Progress::total            2                      
system.ruby.L1Cache_Controller.I_store.Stallnet0from_in |          15     55.56%     55.56% |           6     22.22%     77.78% |           4     14.81%     92.59% |           2      7.41%    100.00%
system.ruby.L1Cache_Controller.I_store.Stallnet0from_in::total           27                      
system.ruby.L1Cache_Controller.I_store_GetM_Ack_AD.Progress |         766     59.43%     59.43% |         177     13.73%     73.16% |         191     14.82%     87.98% |         155     12.02%    100.00%
system.ruby.L1Cache_Controller.I_store_GetM_Ack_AD.Progress::total         1289                      
system.ruby.L1Cache_Controller.I_store_GetM_Ack_AD.Stallnet0from_in |           1     20.00%     20.00% |           2     40.00%     60.00% |           0      0.00%     60.00% |           2     40.00%    100.00%
system.ruby.L1Cache_Controller.I_store_GetM_Ack_AD.Stallnet0from_in::total            5                      
system.ruby.L1Cache_Controller.M.MloadMEvent |     5340952     25.24%     25.24% |     5274813     24.93%     50.17% |     5267042     24.89%     75.07% |     5274705     24.93%    100.00%
system.ruby.L1Cache_Controller.M.MloadMEvent::total     21157512                      
system.ruby.L1Cache_Controller.M.MstoreMEvent |     6642512     25.27%     25.27% |     6536890     24.87%     50.15% |     6541349     24.89%     75.04% |     6560311     24.96%    100.00%
system.ruby.L1Cache_Controller.M.MstoreMEvent::total     26281062                      
system.ruby.L1Cache_Controller.M.allocTBE |      639450     25.19%     25.19% |      638876     25.17%     50.36% |      629932     24.82%     75.18% |      629930     24.82%    100.00%
system.ruby.L1Cache_Controller.M.allocTBE::total      2538188                      
system.ruby.L1Cache_Controller.M.externalstoreMnet1from_in |      633464     25.17%     25.17% |      633791     25.18%     50.35% |      624710     24.82%     75.18% |      624751     24.82%    100.00%
system.ruby.L1Cache_Controller.M.externalstoreMnet1from_in::total      2516716                      
system.ruby.L1Cache_Controller.M.externalstoreMrespfrom_in |        6145     27.90%     27.90% |        5235     23.76%     51.66% |        5346     24.27%     75.93% |        5303     24.07%    100.00%
system.ruby.L1Cache_Controller.M.externalstoreMrespfrom_in::total        22029                      
system.ruby.L1Cache_Controller.M_evict.Stallmandatory_in |         986     30.57%     30.57% |         727     22.54%     53.12% |         713     22.11%     75.22% |         799     24.78%    100.00%
system.ruby.L1Cache_Controller.M_evict.Stallmandatory_in::total         3225                      
system.ruby.L1Cache_Controller.MloadMEvent |     5340952     25.24%     25.24% |     5274813     24.93%     50.17% |     5267042     24.89%     75.07% |     5274705     24.93%    100.00%
system.ruby.L1Cache_Controller.MloadMEvent::total     21157512                      
system.ruby.L1Cache_Controller.MstoreMEvent |     6642512     25.27%     25.27% |     6536890     24.87%     50.15% |     6541349     24.89%     75.04% |     6560311     24.96%    100.00%
system.ruby.L1Cache_Controller.MstoreMEvent::total     26281062                      
system.ruby.L1Cache_Controller.Progress  |       37297     26.72%     26.72% |       33911     24.30%     51.02% |       33746     24.18%     75.20% |       34620     24.80%    100.00%
system.ruby.L1Cache_Controller.Progress::total       139574                      
system.ruby.L1Cache_Controller.S.SloadSEvent |   112685641     25.04%     25.04% |   112319119     24.96%     50.00% |   112429040     24.98%     74.98% |   112619268     25.02%    100.00%
system.ruby.L1Cache_Controller.S.SloadSEvent::total    450053068                      
system.ruby.L1Cache_Controller.S.allocTBE |     1473818     25.18%     25.18% |     1451181     24.79%     49.97% |     1478317     25.26%     75.23% |     1450107     24.77%    100.00%
system.ruby.L1Cache_Controller.S.allocTBE::total      5853423                      
system.ruby.L1Cache_Controller.S.deallocTBE |        2047     52.14%     52.14% |         645     16.43%     68.57% |         612     15.59%     84.16% |         622     15.84%    100.00%
system.ruby.L1Cache_Controller.S.deallocTBE::total         3926                      
system.ruby.L1Cache_Controller.S.externalloadSnet0from_in |     1471949     25.17%     25.17% |     1449384     24.78%     49.95% |     1477908     25.27%     75.21% |     1449792     24.79%    100.00%
system.ruby.L1Cache_Controller.S.externalloadSnet0from_in::total      5849033                      
system.ruby.L1Cache_Controller.S.externalloadSrespfrom_in |         681     17.34%     17.34% |        2009     51.16%     68.50% |         669     17.04%     85.54% |         568     14.46%    100.00%
system.ruby.L1Cache_Controller.S.externalloadSrespfrom_in::total         3927                      
system.ruby.L1Cache_Controller.S_evict.Progress |           0      0.00%      0.00% |           1    100.00%    100.00% |           0      0.00%    100.00% |           0      0.00%    100.00%
system.ruby.L1Cache_Controller.S_evict.Progress::total            1                      
system.ruby.L1Cache_Controller.S_evict.Stallmandatory_in |         705     29.81%     29.81% |         519     21.95%     51.75% |         560     23.68%     75.43% |         581     24.57%    100.00%
system.ruby.L1Cache_Controller.S_evict.Stallmandatory_in::total         2365                      
system.ruby.L1Cache_Controller.S_store.Progress |       35727     26.26%     26.26% |       33248     24.44%     50.69% |       33105     24.33%     75.03% |       33981     24.97%    100.00%
system.ruby.L1Cache_Controller.S_store.Progress::total       136061                      
system.ruby.L1Cache_Controller.S_store.Stallnet0from_in |           2     20.00%     20.00% |           4     40.00%     60.00% |           4     40.00%    100.00% |           0      0.00%    100.00%
system.ruby.L1Cache_Controller.S_store.Stallnet0from_in::total           10                      
system.ruby.L1Cache_Controller.S_store_GetM_Ack_AD.Progress |         802     36.19%     36.19% |         483     21.80%     57.99% |         449     20.26%     78.25% |         482     21.75%    100.00%
system.ruby.L1Cache_Controller.S_store_GetM_Ack_AD.Progress::total         2216                      
system.ruby.L1Cache_Controller.S_store_GetM_Ack_AD.Stallnet0from_in |          18     43.90%     43.90% |          10     24.39%     68.29% |           9     21.95%     90.24% |           4      9.76%    100.00%
system.ruby.L1Cache_Controller.S_store_GetM_Ack_AD.Stallnet0from_in::total           41                      
system.ruby.L1Cache_Controller.SloadSEvent |   112685641     25.04%     25.04% |   112319119     24.96%     50.00% |   112429040     24.98%     74.98% |   112619268     25.02%    100.00%
system.ruby.L1Cache_Controller.SloadSEvent::total    450053068                      
system.ruby.L1Cache_Controller.Stallmandatory_in |        1697     30.29%     30.29% |        1246     22.24%     52.53% |        1276     22.78%     75.31% |        1383     24.69%    100.00%
system.ruby.L1Cache_Controller.Stallmandatory_in::total         5602                      
system.ruby.L1Cache_Controller.Stallnet0from_in |          36     43.37%     43.37% |          22     26.51%     69.88% |          17     20.48%     90.36% |           8      9.64%    100.00%
system.ruby.L1Cache_Controller.Stallnet0from_in::total           83                      
system.ruby.L1Cache_Controller.allocI_load |     1472630     25.16%     25.16% |     1451394     24.80%     49.96% |     1478578     25.26%     75.22% |     1450360     24.78%    100.00%
system.ruby.L1Cache_Controller.allocI_load::total      5852962                      
system.ruby.L1Cache_Controller.allocI_store |      603882     25.13%     25.13% |      605778     25.21%     50.35% |      596951     24.85%     75.19% |      596073     24.81%    100.00%
system.ruby.L1Cache_Controller.allocI_store::total      2402684                      
system.ruby.L1Cache_Controller.allocTBE  |     2113268     25.18%     25.18% |     2090057     24.91%     50.09% |     2108249     25.12%     75.21% |     2080037     24.79%    100.00%
system.ruby.L1Cache_Controller.allocTBE::total      8391611                      
system.ruby.L1Cache_Controller.deallocTBE |        2047     52.14%     52.14% |         645     16.43%     68.57% |         612     15.59%     84.16% |         622     15.84%    100.00%
system.ruby.L1Cache_Controller.deallocTBE::total         3926                      
system.ruby.L1Cache_Controller.deallocnet0from_in |      637401     25.15%     25.15% |      638230     25.18%     50.34% |      629319     24.83%     75.17% |      629307     24.83%    100.00%
system.ruby.L1Cache_Controller.deallocnet0from_in::total      2534257                      
system.ruby.L1Cache_Controller.deallocnet1from_in |           2     40.00%     40.00% |           0      0.00%     40.00% |           1     20.00%     60.00% |           2     40.00%    100.00%
system.ruby.L1Cache_Controller.deallocnet1from_in::total            5                      
system.ruby.L1Cache_Controller.deallocnet2from_in |     1438091     25.15%     25.15% |     1417934     24.80%     49.95% |     1445212     25.28%     75.23% |     1416125     24.77%    100.00%
system.ruby.L1Cache_Controller.deallocnet2from_in::total      5717362                      
system.ruby.L1Cache_Controller.externalloadSnet0from_in |     1471949     25.17%     25.17% |     1449384     24.78%     49.95% |     1477908     25.27%     75.21% |     1449792     24.79%    100.00%
system.ruby.L1Cache_Controller.externalloadSnet0from_in::total      5849033                      
system.ruby.L1Cache_Controller.externalloadSrespfrom_in |         681     17.34%     17.34% |        2009     51.16%     68.50% |         669     17.04%     85.54% |         568     14.46%    100.00%
system.ruby.L1Cache_Controller.externalloadSrespfrom_in::total         3927                      
system.ruby.L1Cache_Controller.externalstoreMnet1from_in |      633464     25.17%     25.17% |      633791     25.18%     50.35% |      624710     24.82%     75.18% |      624751     24.82%    100.00%
system.ruby.L1Cache_Controller.externalstoreMnet1from_in::total      2516716                      
system.ruby.L1Cache_Controller.externalstoreMrespfrom_in |        6145     27.90%     27.90% |        5235     23.76%     51.66% |        5346     24.27%     75.93% |        5303     24.07%    100.00%
system.ruby.L1Cache_Controller.externalstoreMrespfrom_in::total        22029                      
system.ruby.LD.hit_latency_hist_seqr::bucket_size            1                      
system.ruby.LD.hit_latency_hist_seqr::max_bucket            9                      
system.ruby.LD.hit_latency_hist_seqr::samples     85058028                      
system.ruby.LD.hit_latency_hist_seqr     |    85058028    100.00%    100.00% |           0      0.00%    100.00% |           0      0.00%    100.00% |           0      0.00%    100.00% |           0      0.00%    100.00% |           0      0.00%    100.00% |           0      0.00%    100.00% |           0      0.00%    100.00% |           0      0.00%    100.00% |           0      0.00%    100.00%
system.ruby.LD.hit_latency_hist_seqr::total     85058028                      
system.ruby.LD.latency_hist_seqr::bucket_size            1                      
system.ruby.LD.latency_hist_seqr::max_bucket            9                      
system.ruby.LD.latency_hist_seqr::samples     90381160                      
system.ruby.LD.latency_hist_seqr         |    90381160    100.00%    100.00% |           0      0.00%    100.00% |           0      0.00%    100.00% |           0      0.00%    100.00% |           0      0.00%    100.00% |           0      0.00%    100.00% |           0      0.00%    100.00% |           0      0.00%    100.00% |           0      0.00%    100.00% |           0      0.00%    100.00%
system.ruby.LD.latency_hist_seqr::total      90381160                      
system.ruby.LD.miss_latency_hist_seqr::bucket_size            1                      
system.ruby.LD.miss_latency_hist_seqr::max_bucket            9                      
system.ruby.LD.miss_latency_hist_seqr::samples      5323132                      
system.ruby.LD.miss_latency_hist_seqr    |     5323132    100.00%    100.00% |           0      0.00%    100.00% |           0      0.00%    100.00% |           0      0.00%    100.00% |           0      0.00%    100.00% |           0      0.00%    100.00% |           0      0.00%    100.00% |           0      0.00%    100.00% |           0      0.00%    100.00% |           0      0.00%    100.00%
system.ruby.LD.miss_latency_hist_seqr::total      5323132                      
system.ruby.Locked_RMW_Read.hit_latency_hist_seqr::bucket_size            1                      
system.ruby.Locked_RMW_Read.hit_latency_hist_seqr::max_bucket            9                      
system.ruby.Locked_RMW_Read.hit_latency_hist_seqr::samples      2659652                      
system.ruby.Locked_RMW_Read.hit_latency_hist_seqr |     2659652    100.00%    100.00% |           0      0.00%    100.00% |           0      0.00%    100.00% |           0      0.00%    100.00% |           0      0.00%    100.00% |           0      0.00%    100.00% |           0      0.00%    100.00% |           0      0.00%    100.00% |           0      0.00%    100.00% |           0      0.00%    100.00%
system.ruby.Locked_RMW_Read.hit_latency_hist_seqr::total      2659652                      
system.ruby.Locked_RMW_Read.latency_hist_seqr::bucket_size            1                      
system.ruby.Locked_RMW_Read.latency_hist_seqr::max_bucket            9                      
system.ruby.Locked_RMW_Read.latency_hist_seqr::samples      5024292                      
system.ruby.Locked_RMW_Read.latency_hist_seqr |     5024292    100.00%    100.00% |           0      0.00%    100.00% |           0      0.00%    100.00% |           0      0.00%    100.00% |           0      0.00%    100.00% |           0      0.00%    100.00% |           0      0.00%    100.00% |           0      0.00%    100.00% |           0      0.00%    100.00% |           0      0.00%    100.00%
system.ruby.Locked_RMW_Read.latency_hist_seqr::total      5024292                      
system.ruby.Locked_RMW_Read.miss_latency_hist_seqr::bucket_size            1                      
system.ruby.Locked_RMW_Read.miss_latency_hist_seqr::max_bucket            9                      
system.ruby.Locked_RMW_Read.miss_latency_hist_seqr::samples      2364640                      
system.ruby.Locked_RMW_Read.miss_latency_hist_seqr |     2364640    100.00%    100.00% |           0      0.00%    100.00% |           0      0.00%    100.00% |           0      0.00%    100.00% |           0      0.00%    100.00% |           0      0.00%    100.00% |           0      0.00%    100.00% |           0      0.00%    100.00% |           0      0.00%    100.00% |           0      0.00%    100.00%
system.ruby.Locked_RMW_Read.miss_latency_hist_seqr::total      2364640                      
system.ruby.Locked_RMW_Write.hit_latency_hist_seqr::bucket_size            1                      
system.ruby.Locked_RMW_Write.hit_latency_hist_seqr::max_bucket            9                      
system.ruby.Locked_RMW_Write.hit_latency_hist_seqr::samples      5024292                      
system.ruby.Locked_RMW_Write.hit_latency_hist_seqr |     5024292    100.00%    100.00% |           0      0.00%    100.00% |           0      0.00%    100.00% |           0      0.00%    100.00% |           0      0.00%    100.00% |           0      0.00%    100.00% |           0      0.00%    100.00% |           0      0.00%    100.00% |           0      0.00%    100.00% |           0      0.00%    100.00%
system.ruby.Locked_RMW_Write.hit_latency_hist_seqr::total      5024292                      
system.ruby.Locked_RMW_Write.latency_hist_seqr::bucket_size            1                      
system.ruby.Locked_RMW_Write.latency_hist_seqr::max_bucket            9                      
system.ruby.Locked_RMW_Write.latency_hist_seqr::samples      5024292                      
system.ruby.Locked_RMW_Write.latency_hist_seqr |     5024292    100.00%    100.00% |           0      0.00%    100.00% |           0      0.00%    100.00% |           0      0.00%    100.00% |           0      0.00%    100.00% |           0      0.00%    100.00% |           0      0.00%    100.00% |           0      0.00%    100.00% |           0      0.00%    100.00% |           0      0.00%    100.00%
system.ruby.Locked_RMW_Write.latency_hist_seqr::total      5024292                      
system.ruby.RMW_Read.hit_latency_hist_seqr::bucket_size            1                      
system.ruby.RMW_Read.hit_latency_hist_seqr::max_bucket            9                      
system.ruby.RMW_Read.hit_latency_hist_seqr::samples       125014                      
system.ruby.RMW_Read.hit_latency_hist_seqr |      125014    100.00%    100.00% |           0      0.00%    100.00% |           0      0.00%    100.00% |           0      0.00%    100.00% |           0      0.00%    100.00% |           0      0.00%    100.00% |           0      0.00%    100.00% |           0      0.00%    100.00% |           0      0.00%    100.00% |           0      0.00%    100.00%
system.ruby.RMW_Read.hit_latency_hist_seqr::total       125014                      
system.ruby.RMW_Read.latency_hist_seqr::bucket_size            1                      
system.ruby.RMW_Read.latency_hist_seqr::max_bucket            9                      
system.ruby.RMW_Read.latency_hist_seqr::samples       139695                      
system.ruby.RMW_Read.latency_hist_seqr   |      139695    100.00%    100.00% |           0      0.00%    100.00% |           0      0.00%    100.00% |           0      0.00%    100.00% |           0      0.00%    100.00% |           0      0.00%    100.00% |           0      0.00%    100.00% |           0      0.00%    100.00% |           0      0.00%    100.00% |           0      0.00%    100.00%
system.ruby.RMW_Read.latency_hist_seqr::total       139695                      
system.ruby.RMW_Read.miss_latency_hist_seqr::bucket_size            1                      
system.ruby.RMW_Read.miss_latency_hist_seqr::max_bucket            9                      
system.ruby.RMW_Read.miss_latency_hist_seqr::samples        14681                      
system.ruby.RMW_Read.miss_latency_hist_seqr |       14681    100.00%    100.00% |           0      0.00%    100.00% |           0      0.00%    100.00% |           0      0.00%    100.00% |           0      0.00%    100.00% |           0      0.00%    100.00% |           0      0.00%    100.00% |           0      0.00%    100.00% |           0      0.00%    100.00% |           0      0.00%    100.00%
system.ruby.RMW_Read.miss_latency_hist_seqr::total        14681                      
system.ruby.ST.hit_latency_hist_seqr::bucket_size            1                      
system.ruby.ST.hit_latency_hist_seqr::max_bucket            9                      
system.ruby.ST.hit_latency_hist_seqr::samples     18472104                      
system.ruby.ST.hit_latency_hist_seqr     |    18472104    100.00%    100.00% |           0      0.00%    100.00% |           0      0.00%    100.00% |           0      0.00%    100.00% |           0      0.00%    100.00% |           0      0.00%    100.00% |           0      0.00%    100.00% |           0      0.00%    100.00% |           0      0.00%    100.00% |           0      0.00%    100.00%
system.ruby.ST.hit_latency_hist_seqr::total     18472104                      
system.ruby.ST.latency_hist_seqr::bucket_size            1                      
system.ruby.ST.latency_hist_seqr::max_bucket            9                      
system.ruby.ST.latency_hist_seqr::samples     18631528                      
system.ruby.ST.latency_hist_seqr         |    18631528    100.00%    100.00% |           0      0.00%    100.00% |           0      0.00%    100.00% |           0      0.00%    100.00% |           0      0.00%    100.00% |           0      0.00%    100.00% |           0      0.00%    100.00% |           0      0.00%    100.00% |           0      0.00%    100.00% |           0      0.00%    100.00%
system.ruby.ST.latency_hist_seqr::total      18631528                      
system.ruby.ST.miss_latency_hist_seqr::bucket_size            1                      
system.ruby.ST.miss_latency_hist_seqr::max_bucket            9                      
system.ruby.ST.miss_latency_hist_seqr::samples       159424                      
system.ruby.ST.miss_latency_hist_seqr    |      159424    100.00%    100.00% |           0      0.00%    100.00% |           0      0.00%    100.00% |           0      0.00%    100.00% |           0      0.00%    100.00% |           0      0.00%    100.00% |           0      0.00%    100.00% |           0      0.00%    100.00% |           0      0.00%    100.00% |           0      0.00%    100.00%
system.ruby.ST.miss_latency_hist_seqr::total       159424                      
system.ruby.dir_cntrl0.net0From.avg_buf_msgs     0.024729                       # Average number of messages in buffer
system.ruby.dir_cntrl0.net0From.avg_stall_time  3000.052439                       # Average number of cycles messages are stalled in this MB
system.ruby.dir_cntrl0.net1From.avg_buf_msgs     0.007397                       # Average number of messages in buffer
system.ruby.dir_cntrl0.net1From.avg_stall_time  3001.035536                       # Average number of cycles messages are stalled in this MB
system.ruby.dir_cntrl0.net2From.avg_buf_msgs     0.016919                       # Average number of messages in buffer
system.ruby.dir_cntrl0.net2From.avg_stall_time  2999.959005                       # Average number of cycles messages are stalled in this MB
system.ruby.dir_cntrl0.reqTo.avg_buf_msgs     0.008192                       # Average number of messages in buffer
system.ruby.dir_cntrl0.reqTo.avg_stall_time  5411.985398                       # Average number of cycles messages are stalled in this MB
system.ruby.dir_cntrl0.requestToMemory.avg_buf_msgs     0.005342                       # Average number of messages in buffer
system.ruby.dir_cntrl0.requestToMemory.avg_stall_time   499.999991                       # Average number of cycles messages are stalled in this MB
system.ruby.dir_cntrl0.respTo.avg_buf_msgs     0.000002                       # Average number of messages in buffer
system.ruby.dir_cntrl0.respTo.avg_stall_time 13977.238598                       # Average number of cycles messages are stalled in this MB
system.ruby.dir_cntrl0.responseFromMemory.avg_buf_msgs     0.005362                       # Average number of messages in buffer
system.ruby.dir_cntrl0.responseFromMemory.avg_stall_time   499.999826                       # Average number of cycles messages are stalled in this MB
system.ruby.dir_cntrl1.net0From.avg_buf_msgs     0.024610                       # Average number of messages in buffer
system.ruby.dir_cntrl1.net0From.avg_stall_time  3000.052072                       # Average number of cycles messages are stalled in this MB
system.ruby.dir_cntrl1.net1From.avg_buf_msgs     0.007449                       # Average number of messages in buffer
system.ruby.dir_cntrl1.net1From.avg_stall_time  3000.884362                       # Average number of cycles messages are stalled in this MB
system.ruby.dir_cntrl1.net2From.avg_buf_msgs     0.016725                       # Average number of messages in buffer
system.ruby.dir_cntrl1.net2From.avg_stall_time  2999.842613                       # Average number of cycles messages are stalled in this MB
system.ruby.dir_cntrl1.reqTo.avg_buf_msgs     0.008146                       # Average number of messages in buffer
system.ruby.dir_cntrl1.reqTo.avg_stall_time  5436.021964                       # Average number of cycles messages are stalled in this MB
system.ruby.dir_cntrl1.requestToMemory.avg_buf_msgs     0.005330                       # Average number of messages in buffer
system.ruby.dir_cntrl1.requestToMemory.avg_stall_time   499.999779                       # Average number of cycles messages are stalled in this MB
system.ruby.dir_cntrl1.respTo.avg_buf_msgs     0.000002                       # Average number of messages in buffer
system.ruby.dir_cntrl1.respTo.avg_stall_time 14595.275459                       # Average number of cycles messages are stalled in this MB
system.ruby.dir_cntrl1.responseFromMemory.avg_buf_msgs     0.005350                       # Average number of messages in buffer
system.ruby.dir_cntrl1.responseFromMemory.avg_stall_time   499.999614                       # Average number of cycles messages are stalled in this MB
system.ruby.dir_cntrl2.net0From.avg_buf_msgs     0.024639                       # Average number of messages in buffer
system.ruby.dir_cntrl2.net0From.avg_stall_time  3000.048840                       # Average number of cycles messages are stalled in this MB
system.ruby.dir_cntrl2.net1From.avg_buf_msgs     0.007497                       # Average number of messages in buffer
system.ruby.dir_cntrl2.net1From.avg_stall_time  3002.526582                       # Average number of cycles messages are stalled in this MB
system.ruby.dir_cntrl2.net2From.avg_buf_msgs     0.016766                       # Average number of messages in buffer
system.ruby.dir_cntrl2.net2From.avg_stall_time  2999.800562                       # Average number of cycles messages are stalled in this MB
system.ruby.dir_cntrl2.reqTo.avg_buf_msgs     0.008156                       # Average number of messages in buffer
system.ruby.dir_cntrl2.reqTo.avg_stall_time  5413.066070                       # Average number of cycles messages are stalled in this MB
system.ruby.dir_cntrl2.requestToMemory.avg_buf_msgs     0.005337                       # Average number of messages in buffer
system.ruby.dir_cntrl2.requestToMemory.avg_stall_time   499.999148                       # Average number of cycles messages are stalled in this MB
system.ruby.dir_cntrl2.respTo.avg_buf_msgs     0.000002                       # Average number of messages in buffer
system.ruby.dir_cntrl2.respTo.avg_stall_time 14565.783256                       # Average number of cycles messages are stalled in this MB
system.ruby.dir_cntrl2.responseFromMemory.avg_buf_msgs     0.005357                       # Average number of messages in buffer
system.ruby.dir_cntrl2.responseFromMemory.avg_stall_time   499.998984                       # Average number of cycles messages are stalled in this MB
system.ruby.dir_cntrl3.net0From.avg_buf_msgs     0.024580                       # Average number of messages in buffer
system.ruby.dir_cntrl3.net0From.avg_stall_time  3000.047661                       # Average number of cycles messages are stalled in this MB
system.ruby.dir_cntrl3.net1From.avg_buf_msgs     0.007453                       # Average number of messages in buffer
system.ruby.dir_cntrl3.net1From.avg_stall_time  3002.386305                       # Average number of cycles messages are stalled in this MB
system.ruby.dir_cntrl3.net2From.avg_buf_msgs     0.016760                       # Average number of messages in buffer
system.ruby.dir_cntrl3.net2From.avg_stall_time  2999.916712                       # Average number of cycles messages are stalled in this MB
system.ruby.dir_cntrl3.reqTo.avg_buf_msgs     0.008141                       # Average number of messages in buffer
system.ruby.dir_cntrl3.reqTo.avg_stall_time  5422.054290                       # Average number of cycles messages are stalled in this MB
system.ruby.dir_cntrl3.requestToMemory.avg_buf_msgs     0.005318                       # Average number of messages in buffer
system.ruby.dir_cntrl3.requestToMemory.avg_stall_time   499.999989                       # Average number of cycles messages are stalled in this MB
system.ruby.dir_cntrl3.respTo.avg_buf_msgs     0.000002                       # Average number of messages in buffer
system.ruby.dir_cntrl3.respTo.avg_stall_time 15224.437019                       # Average number of cycles messages are stalled in this MB
system.ruby.dir_cntrl3.responseFromMemory.avg_buf_msgs     0.005338                       # Average number of messages in buffer
system.ruby.dir_cntrl3.responseFromMemory.avg_stall_time   499.999824                       # Average number of cycles messages are stalled in this MB
system.ruby.dma_cntrl0.cache.demand_accesses            0                       # Number of cache demand accesses
system.ruby.dma_cntrl0.cache.demand_hits            0                       # Number of cache demand hits
system.ruby.dma_cntrl0.cache.demand_misses            0                       # Number of cache demand misses
system.ruby.dma_cntrl0.fully_busy_cycles         2752                       # cycles for which number of transistions == max transitions
system.ruby.dma_cntrl0.mandatoryQueue.avg_buf_msgs     0.000370                       # Average number of messages in buffer
system.ruby.dma_cntrl0.mandatoryQueue.avg_stall_time 87865.238989                       # Average number of cycles messages are stalled in this MB
system.ruby.dma_cntrl0.net0From.avg_buf_msgs     0.000002                       # Average number of messages in buffer
system.ruby.dma_cntrl0.net0From.avg_stall_time  2938.466458                       # Average number of cycles messages are stalled in this MB
system.ruby.dma_cntrl0.net1From.avg_buf_msgs     0.000004                       # Average number of messages in buffer
system.ruby.dma_cntrl0.net1From.avg_stall_time 55019.075841                       # Average number of cycles messages are stalled in this MB
system.ruby.dma_cntrl0.net2From.avg_buf_msgs     0.000000                       # Average number of messages in buffer
system.ruby.dma_cntrl0.net2From.avg_stall_time  2937.851815                       # Average number of cycles messages are stalled in this MB
system.ruby.dma_cntrl0.reqTo.avg_buf_msgs     0.000592                       # Average number of messages in buffer
system.ruby.dma_cntrl0.reqTo.avg_stall_time  7746.012135                       # Average number of cycles messages are stalled in this MB
system.ruby.dma_cntrl0.respFrom.avg_buf_msgs     0.000000                       # Average number of messages in buffer
system.ruby.dma_cntrl0.respFrom.avg_stall_time  8012.698316                       # Average number of cycles messages are stalled in this MB
system.ruby.dma_cntrl0.respTo.avg_buf_msgs     0.000000                       # Average number of messages in buffer
system.ruby.dma_cntrl0.respTo.avg_stall_time   533.575088                       # Average number of cycles messages are stalled in this MB
system.ruby.hit_latency_hist_seqr::bucket_size            1                      
system.ruby.hit_latency_hist_seqr::max_bucket            9                      
system.ruby.hit_latency_hist_seqr::samples    497491642                      
system.ruby.hit_latency_hist_seqr        |   497491642    100.00%    100.00% |           0      0.00%    100.00% |           0      0.00%    100.00% |           0      0.00%    100.00% |           0      0.00%    100.00% |           0      0.00%    100.00% |           0      0.00%    100.00% |           0      0.00%    100.00% |           0      0.00%    100.00% |           0      0.00%    100.00%
system.ruby.hit_latency_hist_seqr::total    497491642                      
system.ruby.io_controller.cache.demand_accesses            0                       # Number of cache demand accesses
system.ruby.io_controller.cache.demand_hits            0                       # Number of cache demand hits
system.ruby.io_controller.cache.demand_misses            0                       # Number of cache demand misses
system.ruby.l1_cntrl0.cache.demand_accesses            0                       # Number of cache demand accesses
system.ruby.l1_cntrl0.cache.demand_hits             0                       # Number of cache demand hits
system.ruby.l1_cntrl0.cache.demand_misses            0                       # Number of cache demand misses
system.ruby.l1_cntrl0.fully_busy_cycles             2                       # cycles for which number of transistions == max transitions
system.ruby.l1_cntrl0.mandatoryQueue.avg_buf_msgs     0.367538                       # Average number of messages in buffer
system.ruby.l1_cntrl0.mandatoryQueue.avg_stall_time  6025.411137                       # Average number of cycles messages are stalled in this MB
system.ruby.l1_cntrl0.net0From.avg_buf_msgs     0.666051                       # Average number of messages in buffer
system.ruby.l1_cntrl0.net0From.avg_stall_time 14762.895283                       # Average number of cycles messages are stalled in this MB
system.ruby.l1_cntrl0.net1From.avg_buf_msgs     0.001243                       # Average number of messages in buffer
system.ruby.l1_cntrl0.net1From.avg_stall_time 16510.933150                       # Average number of cycles messages are stalled in this MB
system.ruby.l1_cntrl0.net2From.avg_buf_msgs     0.002816                       # Average number of messages in buffer
system.ruby.l1_cntrl0.net2From.avg_stall_time  6494.629758                       # Average number of cycles messages are stalled in this MB
system.ruby.l1_cntrl0.reqTo.avg_buf_msgs     0.008190                       # Average number of messages in buffer
system.ruby.l1_cntrl0.reqTo.avg_stall_time   499.999997                       # Average number of cycles messages are stalled in this MB
system.ruby.l1_cntrl0.respFrom.avg_buf_msgs     0.000014                       # Average number of messages in buffer
system.ruby.l1_cntrl0.respFrom.avg_stall_time 14417.157158                       # Average number of cycles messages are stalled in this MB
system.ruby.l1_cntrl0.respTo.avg_buf_msgs     0.000023                       # Average number of messages in buffer
system.ruby.l1_cntrl0.respTo.avg_stall_time   554.137317                       # Average number of cycles messages are stalled in this MB
system.ruby.l1_cntrl1.cache.demand_accesses            0                       # Number of cache demand accesses
system.ruby.l1_cntrl1.cache.demand_hits             0                       # Number of cache demand hits
system.ruby.l1_cntrl1.cache.demand_misses            0                       # Number of cache demand misses
system.ruby.l1_cntrl1.fully_busy_cycles             1                       # cycles for which number of transistions == max transitions
system.ruby.l1_cntrl1.mandatoryQueue.avg_buf_msgs     0.365705                       # Average number of messages in buffer
system.ruby.l1_cntrl1.mandatoryQueue.avg_stall_time  5979.843012                       # Average number of cycles messages are stalled in this MB
system.ruby.l1_cntrl1.net0From.avg_buf_msgs     0.389023                       # Average number of messages in buffer
system.ruby.l1_cntrl1.net0From.avg_stall_time 14700.039925                       # Average number of cycles messages are stalled in this MB
system.ruby.l1_cntrl1.net1From.avg_buf_msgs     0.001242                       # Average number of messages in buffer
system.ruby.l1_cntrl1.net1From.avg_stall_time 16519.466856                       # Average number of cycles messages are stalled in this MB
system.ruby.l1_cntrl1.net2From.avg_buf_msgs     0.002777                       # Average number of messages in buffer
system.ruby.l1_cntrl1.net2From.avg_stall_time  6512.813936                       # Average number of cycles messages are stalled in this MB
system.ruby.l1_cntrl1.reqTo.avg_buf_msgs     0.008109                       # Average number of messages in buffer
system.ruby.l1_cntrl1.reqTo.avg_stall_time   499.971399                       # Average number of cycles messages are stalled in this MB
system.ruby.l1_cntrl1.respFrom.avg_buf_msgs     0.000014                       # Average number of messages in buffer
system.ruby.l1_cntrl1.respFrom.avg_stall_time 14358.044923                       # Average number of cycles messages are stalled in this MB
system.ruby.l1_cntrl1.respTo.avg_buf_msgs     0.000014                       # Average number of messages in buffer
system.ruby.l1_cntrl1.respTo.avg_stall_time   520.143173                       # Average number of cycles messages are stalled in this MB
system.ruby.l1_cntrl2.cache.demand_accesses            0                       # Number of cache demand accesses
system.ruby.l1_cntrl2.cache.demand_hits             0                       # Number of cache demand hits
system.ruby.l1_cntrl2.cache.demand_misses            0                       # Number of cache demand misses
system.ruby.l1_cntrl2.mandatoryQueue.avg_buf_msgs     0.366310                       # Average number of messages in buffer
system.ruby.l1_cntrl2.mandatoryQueue.avg_stall_time  6003.096025                       # Average number of cycles messages are stalled in this MB
system.ruby.l1_cntrl2.net0From.avg_buf_msgs     0.004128                       # Average number of messages in buffer
system.ruby.l1_cntrl2.net0From.avg_stall_time 14752.367495                       # Average number of cycles messages are stalled in this MB
system.ruby.l1_cntrl2.net1From.avg_buf_msgs     0.001224                       # Average number of messages in buffer
system.ruby.l1_cntrl2.net1From.avg_stall_time 16534.063494                       # Average number of cycles messages are stalled in this MB
system.ruby.l1_cntrl2.net2From.avg_buf_msgs     0.002830                       # Average number of messages in buffer
system.ruby.l1_cntrl2.net2From.avg_stall_time  6498.754199                       # Average number of cycles messages are stalled in this MB
system.ruby.l1_cntrl2.reqTo.avg_buf_msgs     0.008180                       # Average number of messages in buffer
system.ruby.l1_cntrl2.reqTo.avg_stall_time   499.999997                       # Average number of cycles messages are stalled in this MB
system.ruby.l1_cntrl2.respFrom.avg_buf_msgs     0.000012                       # Average number of messages in buffer
system.ruby.l1_cntrl2.respFrom.avg_stall_time 14391.301997                       # Average number of cycles messages are stalled in this MB
system.ruby.l1_cntrl2.respTo.avg_buf_msgs     0.000015                       # Average number of messages in buffer
system.ruby.l1_cntrl2.respTo.avg_stall_time   515.689139                       # Average number of cycles messages are stalled in this MB
system.ruby.l1_cntrl3.cache.demand_accesses            0                       # Number of cache demand accesses
system.ruby.l1_cntrl3.cache.demand_hits             0                       # Number of cache demand hits
system.ruby.l1_cntrl3.cache.demand_misses            0                       # Number of cache demand misses
system.ruby.l1_cntrl3.fully_busy_cycles             1                       # cycles for which number of transistions == max transitions
system.ruby.l1_cntrl3.mandatoryQueue.avg_buf_msgs     0.365503                       # Average number of messages in buffer
system.ruby.l1_cntrl3.mandatoryQueue.avg_stall_time  5945.101445                       # Average number of cycles messages are stalled in this MB
system.ruby.l1_cntrl3.net0From.avg_buf_msgs     0.004073                       # Average number of messages in buffer
system.ruby.l1_cntrl3.net0From.avg_stall_time 14708.296444                       # Average number of cycles messages are stalled in this MB
system.ruby.l1_cntrl3.net1From.avg_buf_msgs     0.001225                       # Average number of messages in buffer
system.ruby.l1_cntrl3.net1From.avg_stall_time 16497.095091                       # Average number of cycles messages are stalled in this MB
system.ruby.l1_cntrl3.net2From.avg_buf_msgs     0.002773                       # Average number of messages in buffer
system.ruby.l1_cntrl3.net2From.avg_stall_time  6510.422997                       # Average number of cycles messages are stalled in this MB
system.ruby.l1_cntrl3.reqTo.avg_buf_msgs     0.008068                       # Average number of messages in buffer
system.ruby.l1_cntrl3.reqTo.avg_stall_time   499.320014                       # Average number of cycles messages are stalled in this MB
system.ruby.l1_cntrl3.respFrom.avg_buf_msgs     0.000012                       # Average number of messages in buffer
system.ruby.l1_cntrl3.respFrom.avg_stall_time 14351.804855                       # Average number of cycles messages are stalled in this MB
system.ruby.l1_cntrl3.respTo.avg_buf_msgs     0.000015                       # Average number of messages in buffer
system.ruby.l1_cntrl3.respTo.avg_stall_time   516.166082                       # Average number of cycles messages are stalled in this MB
system.ruby.latency_hist_seqr::bucket_size            1                      
system.ruby.latency_hist_seqr::max_bucket            9                      
system.ruby.latency_hist_seqr::samples      505883347                      
system.ruby.latency_hist_seqr            |   505883347    100.00%    100.00% |           0      0.00%    100.00% |           0      0.00%    100.00% |           0      0.00%    100.00% |           0      0.00%    100.00% |           0      0.00%    100.00% |           0      0.00%    100.00% |           0      0.00%    100.00% |           0      0.00%    100.00% |           0      0.00%    100.00%
system.ruby.latency_hist_seqr::total        505883347                      
system.ruby.miss_latency_hist_seqr::bucket_size            1                      
system.ruby.miss_latency_hist_seqr::max_bucket            9                      
system.ruby.miss_latency_hist_seqr::samples      8391705                      
system.ruby.miss_latency_hist_seqr       |     8391705    100.00%    100.00% |           0      0.00%    100.00% |           0      0.00%    100.00% |           0      0.00%    100.00% |           0      0.00%    100.00% |           0      0.00%    100.00% |           0      0.00%    100.00% |           0      0.00%    100.00% |           0      0.00%    100.00% |           0      0.00%    100.00%
system.ruby.miss_latency_hist_seqr::total      8391705                      
system.ruby.network.average_flit_latency    16.390216                      
system.ruby.network.average_flit_network_latency    12.117540                      
system.ruby.network.average_flit_queueing_latency     4.272676                      
system.ruby.network.average_flit_vnet_latency |   14.223128                       |   15.056623                       |    5.004368                       |   15.619296                       |    9.725356                      
system.ruby.network.average_flit_vqueue_latency |    6.000032                       |    6.033638                       |    6.000001                       |    1.129787                       |    1.031411                      
system.ruby.network.average_hops             1.000808                      
system.ruby.network.average_packet_latency    15.090048                      
system.ruby.network.average_packet_network_latency    11.580366                      
system.ruby.network.average_packet_queueing_latency     3.509682                      
system.ruby.network.average_packet_vnet_latency |   18.976409                       |   25.076424                       |    5.004368                       |   25.681183                       |    8.037005                      
system.ruby.network.average_packet_vqueue_latency |    6.000121                       |    6.033638                       |    6.000001                       |    1.129787                       |    1.018007                      
system.ruby.network.avg_link_utilization     0.452188                      
system.ruby.network.avg_vc_load          |    0.139515     30.85%     30.85% |    0.016132      3.57%     34.42% |    0.015558      3.44%     37.86% |    0.015564      3.44%     41.30% |    0.055422     12.26%     53.56% |    0.006273      1.39%     54.95% |    0.006182      1.37%     56.31% |    0.006181      1.37%     57.68% |    0.025188      5.57%     63.25% |    0.002812      0.62%     63.87% |    0.002799      0.62%     64.49% |    0.002799      0.62%     65.11% |    0.000725      0.16%     65.27% |    0.000098      0.02%     65.29% |    0.000075      0.02%     65.31% |    0.000074      0.02%     65.33% |    0.115194     25.47%     90.80% |    0.015445      3.42%     94.22% |    0.013076      2.89%     97.11% |    0.013078      2.89%    100.00%
system.ruby.network.avg_vc_load::total       0.452188                      
system.ruby.network.ext_in_link_utilization     76952079                      
system.ruby.network.ext_out_link_utilization     76952078                      
system.ruby.network.flit_network_latency |   452073368                       |   189855733                       |    28611801                       |     2363590                       |   259565417                      
system.ruby.network.flit_queueing_latency |   190707330                       |    76080860                       |    34304201                       |      170965                       |    27527909                      
system.ruby.network.flits_injected       |    31784389     41.30%     41.30% |    12609450     16.39%     57.69% |     5717366      7.43%     65.12% |      151325      0.20%     65.32% |    26689553     34.68%    100.00%
system.ruby.network.flits_injected::total     76952083                      
system.ruby.network.flits_received       |    31784384     41.30%     41.30% |    12609450     16.39%     57.69% |     5717366      7.43%     65.12% |      151325      0.20%     65.32% |    26689553     34.68%    100.00%
system.ruby.network.flits_received::total     76952078                      
system.ruby.network.int_link_utilization     77014226                      
system.ruby.network.packet_network_latency |   159178825                       |    63240084                       |    28611801                       |      777241                       |   133607215                      
system.ruby.network.packet_queueing_latency |    50330506                       |    15216196                       |    34304201                       |       34193                       |    16923349                      
system.ruby.network.packets_injected     |     8388249     25.20%     25.20% |     2521894      7.58%     32.78% |     5717366     17.18%     49.96% |       30265      0.09%     50.05% |    16624005     49.95%    100.00%
system.ruby.network.packets_injected::total     33281779                      
system.ruby.network.packets_received     |     8388248     25.20%     25.20% |     2521894      7.58%     32.78% |     5717366     17.18%     49.96% |       30265      0.09%     50.05% |    16624005     49.95%    100.00%
system.ruby.network.packets_received::total     33281778                      
system.ruby.network.routers0.buffer_reads     38656043                      
system.ruby.network.routers0.buffer_writes     38656043                      
system.ruby.network.routers0.crossbar_activity     38656043                      
system.ruby.network.routers0.sw_input_arbiter_activity     38753987                      
system.ruby.network.routers0.sw_output_arbiter_activity     38656043                      
system.ruby.network.routers1.buffer_reads     38420611                      
system.ruby.network.routers1.buffer_writes     38420611                      
system.ruby.network.routers1.crossbar_activity     38420611                      
system.ruby.network.routers1.sw_input_arbiter_activity     38513580                      
system.ruby.network.routers1.sw_output_arbiter_activity     38420611                      
system.ruby.network.routers2.buffer_reads     38564625                      
system.ruby.network.routers2.buffer_writes     38564625                      
system.ruby.network.routers2.crossbar_activity     38564625                      
system.ruby.network.routers2.sw_input_arbiter_activity     38658296                      
system.ruby.network.routers2.sw_output_arbiter_activity     38564625                      
system.ruby.network.routers3.buffer_reads     38325025                      
system.ruby.network.routers3.buffer_writes     38325025                      
system.ruby.network.routers3.crossbar_activity     38325025                      
system.ruby.network.routers3.sw_input_arbiter_activity     38417379                      
system.ruby.network.routers3.sw_output_arbiter_activity     38325025                      
system.ruby.outstanding_req_hist_seqr::bucket_size            1                      
system.ruby.outstanding_req_hist_seqr::max_bucket            9                      
system.ruby.outstanding_req_hist_seqr::samples    505883349                      
system.ruby.outstanding_req_hist_seqr::mean     1.000000                      
system.ruby.outstanding_req_hist_seqr::gmean     1.000000                      
system.ruby.outstanding_req_hist_seqr::stdev     0.000172                      
system.ruby.outstanding_req_hist_seqr    |           0      0.00%      0.00% |   505883334    100.00%    100.00% |          15      0.00%    100.00% |           0      0.00%    100.00% |           0      0.00%    100.00% |           0      0.00%    100.00% |           0      0.00%    100.00% |           0      0.00%    100.00% |           0      0.00%    100.00% |           0      0.00%    100.00%
system.ruby.outstanding_req_hist_seqr::total    505883349                      
system.switch_cpus0.Branches                  5954354                       # Number of branches fetched
system.switch_cpus0.committedInsts           68872298                       # Number of instructions committed
system.switch_cpus0.committedOps            119752286                       # Number of ops (including micro ops) committed
system.switch_cpus0.dtb.rdAccesses           20389670                       # TLB accesses on read requests
system.switch_cpus0.dtb.rdMisses              1185883                       # TLB misses on read requests
system.switch_cpus0.dtb.wrAccesses            5991095                       # TLB accesses on write requests
system.switch_cpus0.dtb.wrMisses                 1127                       # TLB misses on write requests
system.switch_cpus0.idle_fraction            0.010384                       # Percentage of idle cycles
system.switch_cpus0.itb.rdAccesses                  0                       # TLB accesses on read requests
system.switch_cpus0.itb.rdMisses                    0                       # TLB misses on read requests
system.switch_cpus0.itb.wrAccesses           96832849                       # TLB accesses on write requests
system.switch_cpus0.itb.wrMisses                 2995                       # TLB misses on write requests
system.switch_cpus0.kern.inst.arm                   0                       # number of arm instructions executed
system.switch_cpus0.kern.inst.quiesce               0                       # number of quiesce instructions executed
system.switch_cpus0.not_idle_fraction        0.989616                       # Percentage of non-idle cycles
system.switch_cpus0.numCycles               510668510                       # number of cpu cycles simulated
system.switch_cpus0.numWorkItemsCompleted            0                       # number of work items this cpu completed
system.switch_cpus0.numWorkItemsStarted             0                       # number of work items this cpu started
system.switch_cpus0.num_busy_cycles      505365866.481753                       # Number of busy cycles
system.switch_cpus0.num_cc_register_reads     41792226                       # number of times the CC registers were read
system.switch_cpus0.num_cc_register_writes     38004110                       # number of times the CC registers were written
system.switch_cpus0.num_conditional_control_insts      4382207                       # number of instructions that are conditional controls
system.switch_cpus0.num_fp_alu_accesses      39476772                       # Number of float alu accesses
system.switch_cpus0.num_fp_insts             39476772                       # number of float instructions
system.switch_cpus0.num_fp_register_reads     72450831                       # number of times the floating registers were read
system.switch_cpus0.num_fp_register_writes     38236520                       # number of times the floating registers were written
system.switch_cpus0.num_func_calls            1194466                       # number of times a function call or return occured
system.switch_cpus0.num_idle_cycles      5302643.518247                       # Number of idle cycles
system.switch_cpus0.num_int_alu_accesses     85026308                       # Number of integer alu accesses
system.switch_cpus0.num_int_insts            85026308                       # number of integer instructions
[...]
system.mem_ctrls1.llc.tags.warmup_cycle  100860203393500                       # Cycle when the warmup percentage was hit.
system.mem_ctrls1.llc.tags.occ_blocks::.ruby.dir_cntrl1 85733.015090                       # Average occupied blocks per requestor
system.mem_ctrls1.llc.tags.occ_percent::.ruby.dir_cntrl1     0.327045                       # Average percentage of cache occupancy
system.mem_ctrls1.llc.tags.occ_percent::total     0.327045                       # Average percentage of cache occupancy
system.mem_ctrls1.llc.tags.occ_task_id_blocks::1024       115386                       # Occupied blocks per task id
system.mem_ctrls1.llc.tags.age_task_id_blocks_1024::0           11                       # Occupied blocks per task id
system.mem_ctrls1.llc.tags.age_task_id_blocks_1024::1           67                       # Occupied blocks per task id
system.mem_ctrls1.llc.tags.age_task_id_blocks_1024::2          122                       # Occupied blocks per task id
system.mem_ctrls1.llc.tags.age_task_id_blocks_1024::3          834                       # Occupied blocks per task id
system.mem_ctrls1.llc.tags.age_task_id_blocks_1024::4       114352                       # Occupied blocks per task id
system.mem_ctrls1.llc.tags.occ_task_id_percent::1024     0.440163                       # Percentage of cache occupancy per task id
system.mem_ctrls1.llc.tags.tag_accesses      43667306                       # Number of tag accesses
system.mem_ctrls1.llc.tags.data_accesses      2721995                       # Number of data accesses
system.mem_ctrls1.llc.tags.power_state.pwrStateResidencyTicks::UNDEFINED 101115537592001                       # Cumulative time (in ticks) in various power states
system.mem_ctrls1.rank1.actEnergy           403131540                       # Energy for activate commands per rank (pJ)
system.mem_ctrls1.rank1.preEnergy           214258110                       # Energy for precharge commands per rank (pJ)
system.mem_ctrls1.rank1.readEnergy          413213220                       # Energy for read commands per rank (pJ)
system.mem_ctrls1.rank1.writeEnergy                 0                       # Energy for write commands per rank (pJ)
system.mem_ctrls1.rank1.refreshEnergy    20155274880.000004                       # Energy for refresh commands per rank (pJ)
system.mem_ctrls1.rank1.actBackEnergy     52098895470                       # Energy for active background per rank (pJ)
system.mem_ctrls1.rank1.preBackEnergy     54175516320                       # Energy for precharge background per rank (pJ)
system.mem_ctrls1.rank1.actPowerDownEnergy            0                       # Energy for active power-down per rank (pJ)
system.mem_ctrls1.rank1.prePowerDownEnergy            0                       # Energy for precharge power-down per rank (pJ)
system.mem_ctrls1.rank1.selfRefreshEnergy            0                       # Energy for self refresh per rank (pJ)
system.mem_ctrls1.rank1.totalEnergy      127460289540                       # Total energy per rank (pJ)
system.mem_ctrls1.rank1.averagePower       499.189699                       # Core power per rank (mW)
system.mem_ctrls1.rank1.totalIdleTime               0                       # Total Idle time Per DRAM Rank
system.mem_ctrls1.rank1.memoryStateTime::IDLE 140309812503                       # Time in different power states
system.mem_ctrls1.rank1.memoryStateTime::REF   8525920000                       # Time in different power states
system.mem_ctrls1.rank1.memoryStateTime::SREF            0                       # Time in different power states
system.mem_ctrls1.rank1.memoryStateTime::PRE_PDN            0                       # Time in different power states
system.mem_ctrls1.rank1.memoryStateTime::ACT 106498641998                       # Time in different power states
system.mem_ctrls1.rank1.memoryStateTime::ACT_PDN            0                       # Time in different power states
system.mem_ctrls1.rank0.actEnergy           401882040                       # Energy for activate commands per rank (pJ)
system.mem_ctrls1.rank0.preEnergy           213593985                       # Energy for precharge commands per rank (pJ)
system.mem_ctrls1.rank0.readEnergy          410642820                       # Energy for read commands per rank (pJ)
system.mem_ctrls1.rank0.writeEnergy                 0                       # Energy for write commands per rank (pJ)
system.mem_ctrls1.rank0.refreshEnergy    20155274880.000004                       # Energy for refresh commands per rank (pJ)
system.mem_ctrls1.rank0.actBackEnergy     51941161080                       # Energy for active background per rank (pJ)
system.mem_ctrls1.rank0.preBackEnergy     54308427360                       # Energy for precharge background per rank (pJ)
system.mem_ctrls1.rank0.actPowerDownEnergy            0                       # Energy for active power-down per rank (pJ)
system.mem_ctrls1.rank0.prePowerDownEnergy            0                       # Energy for precharge power-down per rank (pJ)
system.mem_ctrls1.rank0.selfRefreshEnergy            0                       # Energy for self refresh per rank (pJ)
system.mem_ctrls1.rank0.totalEnergy      127430982165                       # Total energy per rank (pJ)
system.mem_ctrls1.rank0.averagePower       499.074919                       # Core power per rank (mW)
system.mem_ctrls1.rank0.totalIdleTime               0                       # Total Idle time Per DRAM Rank
system.mem_ctrls1.rank0.memoryStateTime::IDLE 140655346504                       # Time in different power states
system.mem_ctrls1.rank0.memoryStateTime::REF   8525920000                       # Time in different power states
system.mem_ctrls1.rank0.memoryStateTime::SREF            0                       # Time in different power states
system.mem_ctrls1.rank0.memoryStateTime::PRE_PDN            0                       # Time in different power states
system.mem_ctrls1.rank0.memoryStateTime::ACT 106153107997                       # Time in different power states
system.mem_ctrls1.rank0.memoryStateTime::ACT_PDN            0                       # Time in different power states
system.mem_ctrls1.power_state.pwrStateResidencyTicks::UNDEFINED 101115537592001                       # Cumulative time (in ticks) in various power states
system.cpu_voltage_domain.voltage                   1                       # Voltage in Volts
system.iobus.trans_dist::ReadReq                  366                       # Transaction distribution
system.iobus.trans_dist::ReadResp                 366                       # Transaction distribution
system.iobus.trans_dist::WriteReq                1663                       # Transaction distribution
system.iobus.trans_dist::WriteResp               1663                       # Transaction distribution
system.iobus.pkt_count_system.pc.south_bridge.io_apic.int_master::system.ruby.l1_cntrl1.sequencer.pio-slave-port          170                       # Packet count per connected master and slave (bytes)
system.iobus.pkt_count_system.pc.south_bridge.io_apic.int_master::total          170                       # Packet count per connected master and slave (bytes)
system.iobus.pkt_count_system.ruby.l1_cntrl0.sequencer.mem-master-port::system.ruby.l1_cntrl0.sequencer.pio-slave-port          782                       # Packet count per connected master and slave (bytes)
system.iobus.pkt_count_system.ruby.l1_cntrl0.sequencer.mem-master-port::system.ruby.l1_cntrl1.sequencer.pio-slave-port           22                       # Packet count per connected master and slave (bytes)
system.iobus.pkt_count_system.ruby.l1_cntrl0.sequencer.mem-master-port::system.ruby.l1_cntrl2.sequencer.pio-slave-port           26                       # Packet count per connected master and slave (bytes)
system.iobus.pkt_count_system.ruby.l1_cntrl0.sequencer.mem-master-port::system.ruby.l1_cntrl3.sequencer.pio-slave-port           26                       # Packet count per connected master and slave (bytes)
system.iobus.pkt_count_system.ruby.l1_cntrl0.sequencer.mem-master-port::total          856                       # Packet count per connected master and slave (bytes)
system.iobus.pkt_count_system.ruby.l1_cntrl1.sequencer.mem-master-port::system.pc.south_bridge.ide.pio           12                       # Packet count per connected master and slave (bytes)
system.iobus.pkt_count_system.ruby.l1_cntrl1.sequencer.mem-master-port::system.pc.com_1.pio          662                       # Packet count per connected master and slave (bytes)
system.iobus.pkt_count_system.ruby.l1_cntrl1.sequencer.mem-master-port::system.ruby.l1_cntrl0.sequencer.pio-slave-port           16                       # Packet count per connected master and slave (bytes)
system.iobus.pkt_count_system.ruby.l1_cntrl1.sequencer.mem-master-port::system.ruby.l1_cntrl1.sequencer.pio-slave-port          724                       # Packet count per connected master and slave (bytes)
system.iobus.pkt_count_system.ruby.l1_cntrl1.sequencer.mem-master-port::system.ruby.l1_cntrl2.sequencer.pio-slave-port           16                       # Packet count per connected master and slave (bytes)
system.iobus.pkt_count_system.ruby.l1_cntrl1.sequencer.mem-master-port::system.ruby.l1_cntrl3.sequencer.pio-slave-port           22                       # Packet count per connected master and slave (bytes)
system.iobus.pkt_count_system.ruby.l1_cntrl1.sequencer.mem-master-port::total         1452                       # Packet count per connected master and slave (bytes)
system.iobus.pkt_count_system.ruby.l1_cntrl2.sequencer.mem-master-port::system.pc.com_1.pio            6                       # Packet count per connected master and slave (bytes)
system.iobus.pkt_count_system.ruby.l1_cntrl2.sequencer.mem-master-port::system.ruby.l1_cntrl0.sequencer.pio-slave-port           26                       # Packet count per connected master and slave (bytes)
system.iobus.pkt_count_system.ruby.l1_cntrl2.sequencer.mem-master-port::system.ruby.l1_cntrl1.sequencer.pio-slave-port           24                       # Packet count per connected master and slave (bytes)
system.iobus.pkt_count_system.ruby.l1_cntrl2.sequencer.mem-master-port::system.ruby.l1_cntrl2.sequencer.pio-slave-port          774                       # Packet count per connected master and slave (bytes)
system.iobus.pkt_count_system.ruby.l1_cntrl2.sequencer.mem-master-port::system.ruby.l1_cntrl3.sequencer.pio-slave-port           24                       # Packet count per connected master and slave (bytes)
system.iobus.pkt_count_system.ruby.l1_cntrl2.sequencer.mem-master-port::total          854                       # Packet count per connected master and slave (bytes)
system.iobus.pkt_count_system.ruby.l1_cntrl3.sequencer.mem-master-port::system.pc.south_bridge.ide.pio           34                       # Packet count per connected master and slave (bytes)
system.iobus.pkt_count_system.ruby.l1_cntrl3.sequencer.mem-master-port::system.ruby.l1_cntrl0.sequencer.pio-slave-port           10                       # Packet count per connected master and slave (bytes)
system.iobus.pkt_count_system.ruby.l1_cntrl3.sequencer.mem-master-port::system.ruby.l1_cntrl1.sequencer.pio-slave-port           10                       # Packet count per connected master and slave (bytes)
system.iobus.pkt_count_system.ruby.l1_cntrl3.sequencer.mem-master-port::system.ruby.l1_cntrl2.sequencer.pio-slave-port           10                       # Packet count per connected master and slave (bytes)
system.iobus.pkt_count_system.ruby.l1_cntrl3.sequencer.mem-master-port::system.ruby.l1_cntrl3.sequencer.pio-slave-port          662                       # Packet count per connected master and slave (bytes)
system.iobus.pkt_count_system.ruby.l1_cntrl3.sequencer.mem-master-port::total          726                       # Packet count per connected master and slave (bytes)
system.iobus.pkt_count::total                    4058                       # Packet count per connected master and slave (bytes)
system.iobus.pkt_size_system.pc.south_bridge.io_apic.int_master::system.ruby.l1_cntrl1.sequencer.pio-slave-port          340                       # Cumulative packet size per connected master and slave (bytes)
system.iobus.pkt_size_system.pc.south_bridge.io_apic.int_master::total          340                       # Cumulative packet size per connected master and slave (bytes)
system.iobus.pkt_size_system.ruby.l1_cntrl0.sequencer.mem-master-port::system.ruby.l1_cntrl0.sequencer.pio-slave-port         1564                       # Cumulative packet size per connected master and slave (bytes)
system.iobus.pkt_size_system.ruby.l1_cntrl0.sequencer.mem-master-port::system.ruby.l1_cntrl1.sequencer.pio-slave-port           44                       # Cumulative packet size per connected master and slave (bytes)
system.iobus.pkt_size_system.ruby.l1_cntrl0.sequencer.mem-master-port::system.ruby.l1_cntrl2.sequencer.pio-slave-port           52                       # Cumulative packet size per connected master and slave (bytes)
system.iobus.pkt_size_system.ruby.l1_cntrl0.sequencer.mem-master-port::system.ruby.l1_cntrl3.sequencer.pio-slave-port           52                       # Cumulative packet size per connected master and slave (bytes)
system.iobus.pkt_size_system.ruby.l1_cntrl0.sequencer.mem-master-port::total         1712                       # Cumulative packet size per connected master and slave (bytes)
system.iobus.pkt_size_system.ruby.l1_cntrl1.sequencer.mem-master-port::system.pc.south_bridge.ide.pio            6                       # Cumulative packet size per connected master and slave (bytes)
system.iobus.pkt_size_system.ruby.l1_cntrl1.sequencer.mem-master-port::system.pc.com_1.pio          331                       # Cumulative packet size per connected master and slave (bytes)
system.iobus.pkt_size_system.ruby.l1_cntrl1.sequencer.mem-master-port::system.ruby.l1_cntrl0.sequencer.pio-slave-port           32                       # Cumulative packet size per connected master and slave (bytes)
system.iobus.pkt_size_system.ruby.l1_cntrl1.sequencer.mem-master-port::system.ruby.l1_cntrl1.sequencer.pio-slave-port         1448                       # Cumulative packet size per connected master and slave (bytes)
system.iobus.pkt_size_system.ruby.l1_cntrl1.sequencer.mem-master-port::system.ruby.l1_cntrl2.sequencer.pio-slave-port           32                       # Cumulative packet size per connected master and slave (bytes)
system.iobus.pkt_size_system.ruby.l1_cntrl1.sequencer.mem-master-port::system.ruby.l1_cntrl3.sequencer.pio-slave-port           44                       # Cumulative packet size per connected master and slave (bytes)
system.iobus.pkt_size_system.ruby.l1_cntrl1.sequencer.mem-master-port::total         1893                       # Cumulative packet size per connected master and slave (bytes)
system.iobus.pkt_size_system.ruby.l1_cntrl2.sequencer.mem-master-port::system.pc.com_1.pio            3                       # Cumulative packet size per connected master and slave (bytes)
system.iobus.pkt_size_system.ruby.l1_cntrl2.sequencer.mem-master-port::system.ruby.l1_cntrl0.sequencer.pio-slave-port           52                       # Cumulative packet size per connected master and slave (bytes)
system.iobus.pkt_size_system.ruby.l1_cntrl2.sequencer.mem-master-port::system.ruby.l1_cntrl1.sequencer.pio-slave-port           48                       # Cumulative packet size per connected master and slave (bytes)
system.iobus.pkt_size_system.ruby.l1_cntrl2.sequencer.mem-master-port::system.ruby.l1_cntrl2.sequencer.pio-slave-port         1548                       # Cumulative packet size per connected master and slave (bytes)
system.iobus.pkt_size_system.ruby.l1_cntrl2.sequencer.mem-master-port::system.ruby.l1_cntrl3.sequencer.pio-slave-port           48                       # Cumulative packet size per connected master and slave (bytes)
system.iobus.pkt_size_system.ruby.l1_cntrl2.sequencer.mem-master-port::total         1699                       # Cumulative packet size per connected master and slave (bytes)
system.iobus.pkt_size_system.ruby.l1_cntrl3.sequencer.mem-master-port::system.pc.south_bridge.ide.pio           20                       # Cumulative packet size per connected master and slave (bytes)
system.iobus.pkt_size_system.ruby.l1_cntrl3.sequencer.mem-master-port::system.ruby.l1_cntrl0.sequencer.pio-slave-port           20                       # Cumulative packet size per connected master and slave (bytes)
system.iobus.pkt_size_system.ruby.l1_cntrl3.sequencer.mem-master-port::system.ruby.l1_cntrl1.sequencer.pio-slave-port           20                       # Cumulative packet size per connected master and slave (bytes)
system.iobus.pkt_size_system.ruby.l1_cntrl3.sequencer.mem-master-port::system.ruby.l1_cntrl2.sequencer.pio-slave-port           20                       # Cumulative packet size per connected master and slave (bytes)
system.iobus.pkt_size_system.ruby.l1_cntrl3.sequencer.mem-master-port::system.ruby.l1_cntrl3.sequencer.pio-slave-port         1324                       # Cumulative packet size per connected master and slave (bytes)
system.iobus.pkt_size_system.ruby.l1_cntrl3.sequencer.mem-master-port::total         1404                       # Cumulative packet size per connected master and slave (bytes)
system.iobus.pkt_size::total                     7048                       # Cumulative packet size per connected master and slave (bytes)
system.iobus.reqLayer2.occupancy                38500                       # Layer occupancy (ticks)
system.iobus.reqLayer2.utilization                0.0                       # Layer utilization (%)
system.iobus.power_state.pwrStateResidencyTicks::UNDEFINED 101115537592001                       # Cumulative time (in ticks) in various power states
system.iobus.reqLayer19.occupancy              957707                       # Layer occupancy (ticks)
system.iobus.reqLayer19.utilization               0.0                       # Layer utilization (%)
system.iobus.reqLayer17.occupancy              962212                       # Layer occupancy (ticks)
system.iobus.reqLayer17.utilization               0.0                       # Layer utilization (%)
system.iobus.reqLayer12.occupancy              424000                       # Layer occupancy (ticks)
system.iobus.reqLayer12.utilization               0.0                       # Layer utilization (%)
system.iobus.reqLayer18.occupancy             1090715                       # Layer occupancy (ticks)
system.iobus.reqLayer18.utilization               0.0                       # Layer utilization (%)
system.iobus.respLayer9.occupancy              545000                       # Layer occupancy (ticks)
system.iobus.respLayer9.utilization               0.0                       # Layer utilization (%)
system.iobus.respLayer5.occupancy             1184000                       # Layer occupancy (ticks)
system.iobus.respLayer5.utilization               0.0                       # Layer utilization (%)
system.iobus.respLayer7.occupancy              656000                       # Layer occupancy (ticks)
system.iobus.respLayer7.utilization               0.0                       # Layer utilization (%)
system.iobus.respLayer0.occupancy              126499                       # Layer occupancy (ticks)
system.iobus.respLayer0.utilization               0.0                       # Layer utilization (%)
system.iobus.respLayer3.occupancy              659500                       # Layer occupancy (ticks)
system.iobus.respLayer3.utilization               0.0                       # Layer utilization (%)
system.iobus.reqLayer20.occupancy              888204                       # Layer occupancy (ticks)
system.iobus.reqLayer20.utilization               0.0                       # Layer utilization (%)

---------- End Simulation Statistics   ----------
