
---------- Begin Simulation Statistics ----------
final_tick                               1118958962000                       # Number of ticks from beginning of simulation (restored from checkpoints and never reset)
host_inst_rate                                 319563                       # Simulator instruction rate (inst/s)
host_mem_usage                                1227904                       # Number of bytes of host memory used
host_op_rate                                   515206                       # Simulator op (including micro ops) rate (op/s)
host_seconds                                  2848.60                       # Real time elapsed on the host
host_tick_rate                              392809676                       # Simulator tick rate (ticks/s)
sim_freq                                 1000000000000                       # Frequency of simulated ticks
sim_insts                                   910308691                       # Number of instructions simulated
sim_ops                                    1467618622                       # Number of ops (including micro ops) simulated
sim_seconds                                  1.118959                       # Number of seconds simulated
sim_ticks                                1118958962000                       # Number of ticks simulated
system.cpu0.Branches                         51701001                       # Number of branches fetched
system.cpu0.committedInsts                  521646148                       # Number of instructions committed
system.cpu0.committedOps                    891170943                       # Number of ops (including micro ops) committed
system.cpu0.dtb.rdAccesses                  122669225                       # TLB accesses on read requests
system.cpu0.dtb.rdMisses                        24004                       # TLB misses on read requests
system.cpu0.dtb.wrAccesses                   64029707                       # TLB accesses on write requests
system.cpu0.dtb.wrMisses                       803944                       # TLB misses on write requests
system.cpu0.idle_fraction                    0.007083                       # Percentage of idle cycles
system.cpu0.itb.rdAccesses                          0                       # TLB accesses on read requests
system.cpu0.itb.rdMisses                            0                       # TLB misses on read requests
system.cpu0.itb.wrAccesses                  752690264                       # TLB accesses on write requests
system.cpu0.itb.wrMisses                          362                       # TLB misses on write requests
system.cpu0.not_idle_fraction                0.992917                       # Percentage of non-idle cycles
system.cpu0.numCycles                      2237917924                       # number of cpu cycles simulated
system.cpu0.numWorkItemsCompleted                   0                       # number of work items this cpu completed
system.cpu0.numWorkItemsStarted                     0                       # number of work items this cpu started
system.cpu0.num_busy_cycles              2222067363.998014                       # Number of busy cycles
system.cpu0.num_cc_register_reads           230076347                       # number of times the CC registers were read
system.cpu0.num_cc_register_writes          228321536                       # number of times the CC registers were written
system.cpu0.num_conditional_control_insts     30662464                       # number of instructions that are conditional controls
system.cpu0.num_fp_alu_accesses             363580203                       # Number of float alu accesses
system.cpu0.num_fp_insts                    363580203                       # number of float instructions
system.cpu0.num_fp_register_reads           555158094                       # number of times the floating registers were read
system.cpu0.num_fp_register_writes          323562131                       # number of times the floating registers were written
system.cpu0.num_func_calls                   14691135                       # number of times a function call or return occured
system.cpu0.num_idle_cycles              15850560.001986                       # Number of idle cycles
system.cpu0.num_int_alu_accesses            631034080                       # Number of integer alu accesses
system.cpu0.num_int_insts                   631034080                       # number of integer instructions
system.cpu0.num_int_register_reads         1299748995                       # number of times the integer registers were read
system.cpu0.num_int_register_writes         449326928                       # number of times the integer registers were written
system.cpu0.num_load_insts                  122669188                       # Number of load instructions
system.cpu0.num_mem_refs                    186698883                       # number of memory refs
system.cpu0.num_store_insts                  64029695                       # Number of store instructions
system.cpu0.num_vec_alu_accesses                    0                       # Number of vector alu accesses
system.cpu0.num_vec_insts                           0                       # number of vector instructions
system.cpu0.num_vec_register_reads                  0                       # number of times the vector registers were read
system.cpu0.num_vec_register_writes                 0                       # number of times the vector registers were written
system.cpu0.op_class::No_OpClass                92363      0.01%      0.01% # Class of executed instruction
system.cpu0.op_class::IntAlu                521802119     58.55%     58.56% # Class of executed instruction
system.cpu0.op_class::IntMult                 2098409      0.24%     58.80% # Class of executed instruction
system.cpu0.op_class::IntDiv                    38272      0.00%     58.80% # Class of executed instruction
system.cpu0.op_class::FloatAdd               48610963      5.45%     64.26% # Class of executed instruction
system.cpu0.op_class::FloatCmp                      0      0.00%     64.26% # Class of executed instruction
system.cpu0.op_class::FloatCvt                    192      0.00%     64.26% # Class of executed instruction
system.cpu0.op_class::FloatMult                     0      0.00%     64.26% # Class of executed instruction
system.cpu0.op_class::FloatMultAcc                  0      0.00%     64.26% # Class of executed instruction
system.cpu0.op_class::FloatDiv                      0      0.00%     64.26% # Class of executed instruction
system.cpu0.op_class::FloatMisc                     0      0.00%     64.26% # Class of executed instruction
system.cpu0.op_class::FloatSqrt                     0      0.00%     64.26% # Class of executed instruction
system.cpu0.op_class::SimdAdd                    2134      0.00%     64.26% # Class of executed instruction
system.cpu0.op_class::SimdAddAcc                    0      0.00%     64.26% # Class of executed instruction
system.cpu0.op_class::SimdAlu                25886069      2.90%     67.16% # Class of executed instruction
system.cpu0.op_class::SimdCmp                      20      0.00%     67.16% # Class of executed instruction
system.cpu0.op_class::SimdCvt                    4206      0.00%     67.16% # Class of executed instruction
system.cpu0.op_class::SimdMisc                4439212      0.50%     67.66% # Class of executed instruction
system.cpu0.op_class::SimdMult                      0      0.00%     67.66% # Class of executed instruction
system.cpu0.op_class::SimdMultAcc                   0      0.00%     67.66% # Class of executed instruction
system.cpu0.op_class::SimdShift                   952      0.00%     67.66% # Class of executed instruction
system.cpu0.op_class::SimdShiftAcc                  0      0.00%     67.66% # Class of executed instruction
system.cpu0.op_class::SimdDiv                       0      0.00%     67.66% # Class of executed instruction
system.cpu0.op_class::SimdSqrt                      0      0.00%     67.66% # Class of executed instruction
system.cpu0.op_class::SimdFloatAdd           55288068      6.20%     73.86% # Class of executed instruction
system.cpu0.op_class::SimdFloatAlu                  0      0.00%     73.86% # Class of executed instruction
system.cpu0.op_class::SimdFloatCmp                  0      0.00%     73.86% # Class of executed instruction
system.cpu0.op_class::SimdFloatCvt            5699110      0.64%     74.50% # Class of executed instruction
system.cpu0.op_class::SimdFloatDiv            1049602      0.12%     74.62% # Class of executed instruction
system.cpu0.op_class::SimdFloatMisc                 0      0.00%     74.62% # Class of executed instruction
system.cpu0.op_class::SimdFloatMult          39484018      4.43%     79.05% # Class of executed instruction
system.cpu0.op_class::SimdFloatMultAcc              0      0.00%     79.05% # Class of executed instruction
system.cpu0.op_class::SimdFloatSqrt                 0      0.00%     79.05% # Class of executed instruction
system.cpu0.op_class::SimdReduceAdd                 0      0.00%     79.05% # Class of executed instruction
system.cpu0.op_class::SimdReduceAlu                 0      0.00%     79.05% # Class of executed instruction
system.cpu0.op_class::SimdReduceCmp                 0      0.00%     79.05% # Class of executed instruction
system.cpu0.op_class::SimdFloatReduceAdd            0      0.00%     79.05% # Class of executed instruction
system.cpu0.op_class::SimdFloatReduceCmp            0      0.00%     79.05% # Class of executed instruction
system.cpu0.op_class::SimdAes                       0      0.00%     79.05% # Class of executed instruction
system.cpu0.op_class::SimdAesMix                    0      0.00%     79.05% # Class of executed instruction
system.cpu0.op_class::SimdSha1Hash                  0      0.00%     79.05% # Class of executed instruction
system.cpu0.op_class::SimdSha1Hash2                 0      0.00%     79.05% # Class of executed instruction
system.cpu0.op_class::SimdSha256Hash                0      0.00%     79.05% # Class of executed instruction
system.cpu0.op_class::SimdSha256Hash2               0      0.00%     79.05% # Class of executed instruction
system.cpu0.op_class::SimdShaSigma2                 0      0.00%     79.05% # Class of executed instruction
system.cpu0.op_class::SimdShaSigma3                 0      0.00%     79.05% # Class of executed instruction
system.cpu0.op_class::SimdPredAlu                   0      0.00%     79.05% # Class of executed instruction
system.cpu0.op_class::MemRead                55574606      6.24%     85.29% # Class of executed instruction
system.cpu0.op_class::MemWrite               32049207      3.60%     88.88% # Class of executed instruction
system.cpu0.op_class::FloatMemRead           67094582      7.53%     96.41% # Class of executed instruction
system.cpu0.op_class::FloatMemWrite          31980488      3.59%    100.00% # Class of executed instruction
system.cpu0.op_class::IprAccess                     0      0.00%    100.00% # Class of executed instruction
system.cpu0.op_class::InstPrefetch                  0      0.00%    100.00% # Class of executed instruction
system.cpu0.op_class::total                 891194592                       # Class of executed instruction
system.cpu0.workload.numSyscalls                  132                       # Number of system calls
system.cpu1.Branches                          7988978                       # Number of branches fetched
system.cpu1.committedInsts                  129556801                       # Number of instructions committed
system.cpu1.committedOps                    192153884                       # Number of ops (including micro ops) committed
system.cpu1.dtb.rdAccesses                   22686887                       # TLB accesses on read requests
system.cpu1.dtb.rdMisses                         9381                       # TLB misses on read requests
system.cpu1.dtb.wrAccesses                   14155503                       # TLB accesses on write requests
system.cpu1.dtb.wrMisses                       787473                       # TLB misses on write requests
system.cpu1.idle_fraction                    0.703997                       # Percentage of idle cycles
system.cpu1.itb.rdAccesses                          0                       # TLB accesses on read requests
system.cpu1.itb.rdMisses                            0                       # TLB misses on read requests
system.cpu1.itb.wrAccesses                  197019367                       # TLB accesses on write requests
system.cpu1.itb.wrMisses                           82                       # TLB misses on write requests
system.cpu1.not_idle_fraction                0.296003                       # Percentage of non-idle cycles
system.cpu1.numCycles                      2237772724                       # number of cpu cycles simulated
system.cpu1.numWorkItemsCompleted                   0                       # number of work items this cpu completed
system.cpu1.numWorkItemsStarted                     0                       # number of work items this cpu started
system.cpu1.num_busy_cycles              662388556.291352                       # Number of busy cycles
system.cpu1.num_cc_register_reads            53123001                       # number of times the CC registers were read
system.cpu1.num_cc_register_writes           58930764                       # number of times the CC registers were written
system.cpu1.num_conditional_control_insts      7528361                       # number of instructions that are conditional controls
system.cpu1.num_fp_alu_accesses             102146170                       # Number of float alu accesses
system.cpu1.num_fp_insts                    102146170                       # number of float instructions
system.cpu1.num_fp_register_reads           141009258                       # number of times the floating registers were read
system.cpu1.num_fp_register_writes           88543702                       # number of times the floating registers were written
system.cpu1.num_func_calls                       1591                       # number of times a function call or return occured
system.cpu1.num_idle_cycles              1575384167.708648                       # Number of idle cycles
system.cpu1.num_int_alu_accesses            122902375                       # Number of integer alu accesses
system.cpu1.num_int_insts                   122902375                       # number of integer instructions
system.cpu1.num_int_register_reads          259024701                       # number of times the integer registers were read
system.cpu1.num_int_register_writes          81466880                       # number of times the integer registers were written
system.cpu1.num_load_insts                   22686883                       # Number of load instructions
system.cpu1.num_mem_refs                     36842386                       # number of memory refs
system.cpu1.num_store_insts                  14155503                       # Number of store instructions
system.cpu1.num_vec_alu_accesses                    0                       # Number of vector alu accesses
system.cpu1.num_vec_insts                           0                       # number of vector instructions
system.cpu1.num_vec_register_reads                  0                       # number of times the vector registers were read
system.cpu1.num_vec_register_writes                 0                       # number of times the vector registers were written
system.cpu1.op_class::No_OpClass                76871      0.04%      0.04% # Class of executed instruction
system.cpu1.op_class::IntAlu                108044685     56.23%     56.27% # Class of executed instruction
system.cpu1.op_class::IntMult                      69      0.00%     56.27% # Class of executed instruction
system.cpu1.op_class::IntDiv                    36023      0.02%     56.29% # Class of executed instruction
system.cpu1.op_class::FloatAdd               19365952     10.08%     66.36% # Class of executed instruction
system.cpu1.op_class::FloatCmp                      0      0.00%     66.36% # Class of executed instruction
system.cpu1.op_class::FloatCvt                     80      0.00%     66.37% # Class of executed instruction
system.cpu1.op_class::FloatMult                     0      0.00%     66.37% # Class of executed instruction
system.cpu1.op_class::FloatMultAcc                  0      0.00%     66.37% # Class of executed instruction
system.cpu1.op_class::FloatDiv                      0      0.00%     66.37% # Class of executed instruction
system.cpu1.op_class::FloatMisc                     0      0.00%     66.37% # Class of executed instruction
system.cpu1.op_class::FloatSqrt                     0      0.00%     66.37% # Class of executed instruction
system.cpu1.op_class::SimdAdd                     470      0.00%     66.37% # Class of executed instruction
system.cpu1.op_class::SimdAddAcc                    0      0.00%     66.37% # Class of executed instruction
system.cpu1.op_class::SimdAlu                     200      0.00%     66.37% # Class of executed instruction
system.cpu1.op_class::SimdCmp                       0      0.00%     66.37% # Class of executed instruction
system.cpu1.op_class::SimdCvt                     344      0.00%     66.37% # Class of executed instruction
system.cpu1.op_class::SimdMisc                    334      0.00%     66.37% # Class of executed instruction
system.cpu1.op_class::SimdMult                      0      0.00%     66.37% # Class of executed instruction
system.cpu1.op_class::SimdMultAcc                   0      0.00%     66.37% # Class of executed instruction
system.cpu1.op_class::SimdShift                   236      0.00%     66.37% # Class of executed instruction
system.cpu1.op_class::SimdShiftAcc                  0      0.00%     66.37% # Class of executed instruction
system.cpu1.op_class::SimdDiv                       0      0.00%     66.37% # Class of executed instruction
system.cpu1.op_class::SimdSqrt                      0      0.00%     66.37% # Class of executed instruction
system.cpu1.op_class::SimdFloatAdd           16252928      8.46%     74.82% # Class of executed instruction
system.cpu1.op_class::SimdFloatAlu                  0      0.00%     74.82% # Class of executed instruction
system.cpu1.op_class::SimdFloatCmp                  0      0.00%     74.82% # Class of executed instruction
system.cpu1.op_class::SimdFloatCvt                  0      0.00%     74.82% # Class of executed instruction
system.cpu1.op_class::SimdFloatDiv                  0      0.00%     74.82% # Class of executed instruction
system.cpu1.op_class::SimdFloatMisc                 0      0.00%     74.82% # Class of executed instruction
system.cpu1.op_class::SimdFloatMult          11534336      6.00%     80.83% # Class of executed instruction
system.cpu1.op_class::SimdFloatMultAcc              0      0.00%     80.83% # Class of executed instruction
system.cpu1.op_class::SimdFloatSqrt                 0      0.00%     80.83% # Class of executed instruction
system.cpu1.op_class::SimdReduceAdd                 0      0.00%     80.83% # Class of executed instruction
system.cpu1.op_class::SimdReduceAlu                 0      0.00%     80.83% # Class of executed instruction
system.cpu1.op_class::SimdReduceCmp                 0      0.00%     80.83% # Class of executed instruction
system.cpu1.op_class::SimdFloatReduceAdd            0      0.00%     80.83% # Class of executed instruction
system.cpu1.op_class::SimdFloatReduceCmp            0      0.00%     80.83% # Class of executed instruction
system.cpu1.op_class::SimdAes                       0      0.00%     80.83% # Class of executed instruction
system.cpu1.op_class::SimdAesMix                    0      0.00%     80.83% # Class of executed instruction
system.cpu1.op_class::SimdSha1Hash                  0      0.00%     80.83% # Class of executed instruction
system.cpu1.op_class::SimdSha1Hash2                 0      0.00%     80.83% # Class of executed instruction
system.cpu1.op_class::SimdSha256Hash                0      0.00%     80.83% # Class of executed instruction
system.cpu1.op_class::SimdSha256Hash2               0      0.00%     80.83% # Class of executed instruction
system.cpu1.op_class::SimdShaSigma2                 0      0.00%     80.83% # Class of executed instruction
system.cpu1.op_class::SimdShaSigma3                 0      0.00%     80.83% # Class of executed instruction
system.cpu1.op_class::SimdPredAlu                   0      0.00%     80.83% # Class of executed instruction
system.cpu1.op_class::MemRead                 3318494      1.73%     82.55% # Class of executed instruction
system.cpu1.op_class::MemWrite                 553255      0.29%     82.84% # Class of executed instruction
system.cpu1.op_class::FloatMemRead           19368389     10.08%     92.92% # Class of executed instruction
system.cpu1.op_class::FloatMemWrite          13602248      7.08%    100.00% # Class of executed instruction
system.cpu1.op_class::IprAccess                     0      0.00%    100.00% # Class of executed instruction
system.cpu1.op_class::InstPrefetch                  0      0.00%    100.00% # Class of executed instruction
system.cpu1.op_class::total                 192154914                       # Class of executed instruction
system.cpu2.Branches                          7988314                       # Number of branches fetched
system.cpu2.committedInsts                  129553268                       # Number of instructions committed
system.cpu2.committedOps                    192147229                       # Number of ops (including micro ops) committed
system.cpu2.dtb.rdAccesses                   22686096                       # TLB accesses on read requests
system.cpu2.dtb.rdMisses                         9371                       # TLB misses on read requests
system.cpu2.dtb.wrAccesses                   14155043                       # TLB accesses on write requests
system.cpu2.dtb.wrMisses                       787472                       # TLB misses on write requests
system.cpu2.idle_fraction                    0.699756                       # Percentage of idle cycles
system.cpu2.itb.rdAccesses                          0                       # TLB accesses on read requests
system.cpu2.itb.rdMisses                            0                       # TLB misses on read requests
system.cpu2.itb.wrAccesses                  197038694                       # TLB accesses on write requests
system.cpu2.itb.wrMisses                           87                       # TLB misses on write requests
system.cpu2.not_idle_fraction                0.300244                       # Percentage of non-idle cycles
system.cpu2.numCycles                      2237772548                       # number of cpu cycles simulated
system.cpu2.numWorkItemsCompleted                   0                       # number of work items this cpu completed
system.cpu2.numWorkItemsStarted                     0                       # number of work items this cpu started
system.cpu2.num_busy_cycles              671878533.678752                       # Number of busy cycles
system.cpu2.num_cc_register_reads            53119487                       # number of times the CC registers were read
system.cpu2.num_cc_register_writes           58927496                       # number of times the CC registers were written
system.cpu2.num_conditional_control_insts      7527879                       # number of instructions that are conditional controls
system.cpu2.num_fp_alu_accesses             102145841                       # Number of float alu accesses
system.cpu2.num_fp_insts                    102145841                       # number of float instructions
system.cpu2.num_fp_register_reads           141008816                       # number of times the floating registers were read
system.cpu2.num_fp_register_writes           88543459                       # number of times the floating registers were written
system.cpu2.num_func_calls                       1453                       # number of times a function call or return occured
system.cpu2.num_idle_cycles              1565894014.321248                       # Number of idle cycles
system.cpu2.num_int_alu_accesses            122895983                       # Number of integer alu accesses
system.cpu2.num_int_insts                   122895983                       # number of integer instructions
system.cpu2.num_int_register_reads          259012014                       # number of times the integer registers were read
system.cpu2.num_int_register_writes          81461638                       # number of times the integer registers were written
system.cpu2.num_load_insts                   22686093                       # Number of load instructions
system.cpu2.num_mem_refs                     36841136                       # number of memory refs
system.cpu2.num_store_insts                  14155043                       # Number of store instructions
system.cpu2.num_vec_alu_accesses                    0                       # Number of vector alu accesses
system.cpu2.num_vec_insts                           0                       # number of vector instructions
system.cpu2.num_vec_register_reads                  0                       # number of times the vector registers were read
system.cpu2.num_vec_register_writes                 0                       # number of times the vector registers were written
system.cpu2.op_class::No_OpClass                76833      0.04%      0.04% # Class of executed instruction
system.cpu2.op_class::IntAlu                108039534     56.23%     56.27% # Class of executed instruction
system.cpu2.op_class::IntMult                      62      0.00%     56.27% # Class of executed instruction
system.cpu2.op_class::IntDiv                    36001      0.02%     56.29% # Class of executed instruction
system.cpu2.op_class::FloatAdd               19365939     10.08%     66.36% # Class of executed instruction
system.cpu2.op_class::FloatCmp                      0      0.00%     66.36% # Class of executed instruction
system.cpu2.op_class::FloatCvt                     64      0.00%     66.36% # Class of executed instruction
system.cpu2.op_class::FloatMult                     0      0.00%     66.36% # Class of executed instruction
system.cpu2.op_class::FloatMultAcc                  0      0.00%     66.36% # Class of executed instruction
system.cpu2.op_class::FloatDiv                      0      0.00%     66.36% # Class of executed instruction
system.cpu2.op_class::FloatMisc                     0      0.00%     66.36% # Class of executed instruction
system.cpu2.op_class::FloatSqrt                     0      0.00%     66.36% # Class of executed instruction
system.cpu2.op_class::SimdAdd                     452      0.00%     66.36% # Class of executed instruction
system.cpu2.op_class::SimdAddAcc                    0      0.00%     66.36% # Class of executed instruction
system.cpu2.op_class::SimdAlu                     163      0.00%     66.36% # Class of executed instruction
system.cpu2.op_class::SimdCmp                       0      0.00%     66.36% # Class of executed instruction
system.cpu2.op_class::SimdCvt                     288      0.00%     66.37% # Class of executed instruction
system.cpu2.op_class::SimdMisc                    292      0.00%     66.37% # Class of executed instruction
system.cpu2.op_class::SimdMult                      0      0.00%     66.37% # Class of executed instruction
system.cpu2.op_class::SimdMultAcc                   0      0.00%     66.37% # Class of executed instruction
system.cpu2.op_class::SimdShift                   231      0.00%     66.37% # Class of executed instruction
system.cpu2.op_class::SimdShiftAcc                  0      0.00%     66.37% # Class of executed instruction
system.cpu2.op_class::SimdDiv                       0      0.00%     66.37% # Class of executed instruction
system.cpu2.op_class::SimdSqrt                      0      0.00%     66.37% # Class of executed instruction
system.cpu2.op_class::SimdFloatAdd           16252928      8.46%     74.82% # Class of executed instruction
system.cpu2.op_class::SimdFloatAlu                  0      0.00%     74.82% # Class of executed instruction
system.cpu2.op_class::SimdFloatCmp                  0      0.00%     74.82% # Class of executed instruction
system.cpu2.op_class::SimdFloatCvt                  0      0.00%     74.82% # Class of executed instruction
system.cpu2.op_class::SimdFloatDiv                  0      0.00%     74.82% # Class of executed instruction
system.cpu2.op_class::SimdFloatMisc                 0      0.00%     74.82% # Class of executed instruction
system.cpu2.op_class::SimdFloatMult          11534336      6.00%     80.83% # Class of executed instruction
system.cpu2.op_class::SimdFloatMultAcc              0      0.00%     80.83% # Class of executed instruction
system.cpu2.op_class::SimdFloatSqrt                 0      0.00%     80.83% # Class of executed instruction
system.cpu2.op_class::SimdReduceAdd                 0      0.00%     80.83% # Class of executed instruction
system.cpu2.op_class::SimdReduceAlu                 0      0.00%     80.83% # Class of executed instruction
system.cpu2.op_class::SimdReduceCmp                 0      0.00%     80.83% # Class of executed instruction
system.cpu2.op_class::SimdFloatReduceAdd            0      0.00%     80.83% # Class of executed instruction
system.cpu2.op_class::SimdFloatReduceCmp            0      0.00%     80.83% # Class of executed instruction
system.cpu2.op_class::SimdAes                       0      0.00%     80.83% # Class of executed instruction
system.cpu2.op_class::SimdAesMix                    0      0.00%     80.83% # Class of executed instruction
system.cpu2.op_class::SimdSha1Hash                  0      0.00%     80.83% # Class of executed instruction
system.cpu2.op_class::SimdSha1Hash2                 0      0.00%     80.83% # Class of executed instruction
system.cpu2.op_class::SimdSha256Hash                0      0.00%     80.83% # Class of executed instruction
system.cpu2.op_class::SimdSha256Hash2               0      0.00%     80.83% # Class of executed instruction
system.cpu2.op_class::SimdShaSigma2                 0      0.00%     80.83% # Class of executed instruction
system.cpu2.op_class::SimdShaSigma3                 0      0.00%     80.83% # Class of executed instruction
system.cpu2.op_class::SimdPredAlu                   0      0.00%     80.83% # Class of executed instruction
system.cpu2.op_class::MemRead                 3317792      1.73%     82.55% # Class of executed instruction
system.cpu2.op_class::MemWrite                 552837      0.29%     82.84% # Class of executed instruction
system.cpu2.op_class::FloatMemRead           19368301     10.08%     92.92% # Class of executed instruction
system.cpu2.op_class::FloatMemWrite          13602206      7.08%    100.00% # Class of executed instruction
system.cpu2.op_class::IprAccess                     0      0.00%    100.00% # Class of executed instruction
system.cpu2.op_class::InstPrefetch                  0      0.00%    100.00% # Class of executed instruction
system.cpu2.op_class::total                 192148259                       # Class of executed instruction
system.cpu3.Branches                          7988347                       # Number of branches fetched
system.cpu3.committedInsts                  129552474                       # Number of instructions committed
system.cpu3.committedOps                    192146566                       # Number of ops (including micro ops) committed
system.cpu3.dtb.rdAccesses                   22686120                       # TLB accesses on read requests
system.cpu3.dtb.rdMisses                         9352                       # TLB misses on read requests
system.cpu3.dtb.wrAccesses                   14155073                       # TLB accesses on write requests
system.cpu3.dtb.wrMisses                       787471                       # TLB misses on write requests
system.cpu3.idle_fraction                    0.700793                       # Percentage of idle cycles
system.cpu3.itb.rdAccesses                          0                       # TLB accesses on read requests
system.cpu3.itb.rdMisses                            0                       # TLB misses on read requests
system.cpu3.itb.wrAccesses                  197061712                       # TLB accesses on write requests
system.cpu3.itb.wrMisses                           83                       # TLB misses on write requests
system.cpu3.not_idle_fraction                0.299207                       # Percentage of non-idle cycles
system.cpu3.numCycles                      2237772633                       # number of cpu cycles simulated
system.cpu3.numWorkItemsCompleted                   0                       # number of work items this cpu completed
system.cpu3.numWorkItemsStarted                     0                       # number of work items this cpu started
system.cpu3.num_busy_cycles              669557401.904406                       # Number of busy cycles
system.cpu3.num_cc_register_reads            53119476                       # number of times the CC registers were read
system.cpu3.num_cc_register_writes           58925805                       # number of times the CC registers were written
system.cpu3.num_conditional_control_insts      7527878                       # number of instructions that are conditional controls
system.cpu3.num_fp_alu_accesses             102145841                       # Number of float alu accesses
system.cpu3.num_fp_insts                    102145841                       # number of float instructions
system.cpu3.num_fp_register_reads           141008816                       # number of times the floating registers were read
system.cpu3.num_fp_register_writes           88543459                       # number of times the floating registers were written
system.cpu3.num_func_calls                       1485                       # number of times a function call or return occured
system.cpu3.num_idle_cycles              1568215231.095594                       # Number of idle cycles
system.cpu3.num_int_alu_accesses            122895276                       # Number of integer alu accesses
system.cpu3.num_int_insts                   122895276                       # number of integer instructions
system.cpu3.num_int_register_reads          259010513                       # number of times the integer registers were read
system.cpu3.num_int_register_writes          81460838                       # number of times the integer registers were written
system.cpu3.num_load_insts                   22686117                       # Number of load instructions
system.cpu3.num_mem_refs                     36841190                       # number of memory refs
system.cpu3.num_store_insts                  14155073                       # Number of store instructions
system.cpu3.num_vec_alu_accesses                    0                       # Number of vector alu accesses
system.cpu3.num_vec_insts                           0                       # number of vector instructions
system.cpu3.num_vec_register_reads                  0                       # number of times the vector registers were read
system.cpu3.num_vec_register_writes                 0                       # number of times the vector registers were written
system.cpu3.op_class::No_OpClass                76836      0.04%      0.04% # Class of executed instruction
system.cpu3.op_class::IntAlu                108038844     56.23%     56.27% # Class of executed instruction
system.cpu3.op_class::IntMult                      35      0.00%     56.27% # Class of executed instruction
system.cpu3.op_class::IntDiv                    36001      0.02%     56.29% # Class of executed instruction
system.cpu3.op_class::FloatAdd               19365939     10.08%     66.36% # Class of executed instruction
system.cpu3.op_class::FloatCmp                      0      0.00%     66.36% # Class of executed instruction
system.cpu3.op_class::FloatCvt                     64      0.00%     66.36% # Class of executed instruction
system.cpu3.op_class::FloatMult                     0      0.00%     66.36% # Class of executed instruction
system.cpu3.op_class::FloatMultAcc                  0      0.00%     66.36% # Class of executed instruction
system.cpu3.op_class::FloatDiv                      0      0.00%     66.36% # Class of executed instruction
system.cpu3.op_class::FloatMisc                     0      0.00%     66.36% # Class of executed instruction
system.cpu3.op_class::FloatSqrt                     0      0.00%     66.36% # Class of executed instruction
system.cpu3.op_class::SimdAdd                     452      0.00%     66.36% # Class of executed instruction
system.cpu3.op_class::SimdAddAcc                    0      0.00%     66.36% # Class of executed instruction
system.cpu3.op_class::SimdAlu                     163      0.00%     66.36% # Class of executed instruction
system.cpu3.op_class::SimdCmp                       0      0.00%     66.36% # Class of executed instruction
system.cpu3.op_class::SimdCvt                     288      0.00%     66.36% # Class of executed instruction
system.cpu3.op_class::SimdMisc                    292      0.00%     66.37% # Class of executed instruction
system.cpu3.op_class::SimdMult                      0      0.00%     66.37% # Class of executed instruction
system.cpu3.op_class::SimdMultAcc                   0      0.00%     66.37% # Class of executed instruction
system.cpu3.op_class::SimdShift                   231      0.00%     66.37% # Class of executed instruction
system.cpu3.op_class::SimdShiftAcc                  0      0.00%     66.37% # Class of executed instruction
system.cpu3.op_class::SimdDiv                       0      0.00%     66.37% # Class of executed instruction
system.cpu3.op_class::SimdSqrt                      0      0.00%     66.37% # Class of executed instruction
system.cpu3.op_class::SimdFloatAdd           16252928      8.46%     74.82% # Class of executed instruction
system.cpu3.op_class::SimdFloatAlu                  0      0.00%     74.82% # Class of executed instruction
system.cpu3.op_class::SimdFloatCmp                  0      0.00%     74.82% # Class of executed instruction
system.cpu3.op_class::SimdFloatCvt                  0      0.00%     74.82% # Class of executed instruction
system.cpu3.op_class::SimdFloatDiv                  0      0.00%     74.82% # Class of executed instruction
system.cpu3.op_class::SimdFloatMisc                 0      0.00%     74.82% # Class of executed instruction
system.cpu3.op_class::SimdFloatMult          11534336      6.00%     80.83% # Class of executed instruction
system.cpu3.op_class::SimdFloatMultAcc              0      0.00%     80.83% # Class of executed instruction
system.cpu3.op_class::SimdFloatSqrt                 0      0.00%     80.83% # Class of executed instruction
system.cpu3.op_class::SimdReduceAdd                 0      0.00%     80.83% # Class of executed instruction
system.cpu3.op_class::SimdReduceAlu                 0      0.00%     80.83% # Class of executed instruction
system.cpu3.op_class::SimdReduceCmp                 0      0.00%     80.83% # Class of executed instruction
system.cpu3.op_class::SimdFloatReduceAdd            0      0.00%     80.83% # Class of executed instruction
system.cpu3.op_class::SimdFloatReduceCmp            0      0.00%     80.83% # Class of executed instruction
system.cpu3.op_class::SimdAes                       0      0.00%     80.83% # Class of executed instruction
system.cpu3.op_class::SimdAesMix                    0      0.00%     80.83% # Class of executed instruction
system.cpu3.op_class::SimdSha1Hash                  0      0.00%     80.83% # Class of executed instruction
system.cpu3.op_class::SimdSha1Hash2                 0      0.00%     80.83% # Class of executed instruction
system.cpu3.op_class::SimdSha256Hash                0      0.00%     80.83% # Class of executed instruction
system.cpu3.op_class::SimdSha256Hash2               0      0.00%     80.83% # Class of executed instruction
system.cpu3.op_class::SimdShaSigma2                 0      0.00%     80.83% # Class of executed instruction
system.cpu3.op_class::SimdShaSigma3                 0      0.00%     80.83% # Class of executed instruction
system.cpu3.op_class::SimdPredAlu                   0      0.00%     80.83% # Class of executed instruction
system.cpu3.op_class::MemRead                 3317816      1.73%     82.55% # Class of executed instruction
system.cpu3.op_class::MemWrite                 552867      0.29%     82.84% # Class of executed instruction
system.cpu3.op_class::FloatMemRead           19368301     10.08%     92.92% # Class of executed instruction
system.cpu3.op_class::FloatMemWrite          13602206      7.08%    100.00% # Class of executed instruction
system.cpu3.op_class::IprAccess                     0      0.00%    100.00% # Class of executed instruction
system.cpu3.op_class::InstPrefetch                  0      0.00%    100.00% # Class of executed instruction
system.cpu3.op_class::total                 192147599                       # Class of executed instruction
system.ruby.Directory_Controller.I.deallocTBE |     1087638     25.01%     25.01% |     1090737     25.08%     50.10% |     1087086     25.00%     75.10% |     1082879     24.90%    100.00%
system.ruby.Directory_Controller.I.deallocTBE::total      4348340                      
system.ruby.Directory_Controller.I_GetML1C1_0.Progress |      467645     25.04%     25.04% |      467608     25.04%     50.08% |      466038     24.96%     75.04% |      466064     24.96%    100.00%
system.ruby.Directory_Controller.I_GetML1C1_0.Progress::total      1867355                      
system.ruby.Directory_Controller.I_GetML1C1_0.Stallreqto_in |           0      0.00%      0.00% |           0      0.00%      0.00% |           0      0.00%      0.00% |           1    100.00%    100.00%
system.ruby.Directory_Controller.I_GetML1C1_0.Stallreqto_in::total            1                      
system.ruby.Directory_Controller.I_GetSL1C1_0.Progress |      620887     24.99%     24.99% |      623969     25.11%     50.10% |      621952     25.03%     75.14% |      617687     24.86%    100.00%
system.ruby.Directory_Controller.I_GetSL1C1_0.Progress::total      2484495                      
system.ruby.Directory_Controller.I_GetSL1C1_0.Stallreqto_in |         157     29.46%     29.46% |         115     21.58%     51.03% |         169     31.71%     82.74% |          92     17.26%    100.00%
system.ruby.Directory_Controller.I_GetSL1C1_0.Stallreqto_in::total          533                      
system.ruby.Directory_Controller.M.allocTBE |          10      6.49%      6.49% |          16     10.39%     16.88% |          66     42.86%     59.74% |          62     40.26%    100.00%
system.ruby.Directory_Controller.M.allocTBE::total          154                      
system.ruby.Directory_Controller.M.deallocTBE |      722926     25.02%     25.02% |      723574     25.04%     50.06% |      721585     24.97%     75.03% |      721421     24.97%    100.00%
system.ruby.Directory_Controller.M.deallocTBE::total      2889506                      
system.ruby.Directory_Controller.M_GetS.Progress |          10      6.49%      6.49% |          16     10.39%     16.88% |          66     42.86%     59.74% |          62     40.26%    100.00%
system.ruby.Directory_Controller.M_GetS.Progress::total          154                      
system.ruby.Directory_Controller.M_GetS.Stallreqto_in |           2      3.28%      3.28% |           0      0.00%      3.28% |          42     68.85%     72.13% |          17     27.87%    100.00%
system.ruby.Directory_Controller.M_GetS.Stallreqto_in::total           61                      
system.ruby.Directory_Controller.M_GetS_WBL1C1_0.Progress |          10      6.49%      6.49% |          16     10.39%     16.88% |          66     42.86%     59.74% |          62     40.26%    100.00%
system.ruby.Directory_Controller.M_GetS_WBL1C1_0.Progress::total          154                      
system.ruby.Directory_Controller.M_GetS_WBL1C1_0.Stallreqto_in |           4      3.67%      3.67% |           0      0.00%      3.67% |          47     43.12%     46.79% |          58     53.21%    100.00%
system.ruby.Directory_Controller.M_GetS_WBL1C1_0.Stallreqto_in::total          109                      
system.ruby.Directory_Controller.M_PutML1C1_0.Progress |      722287     25.02%     25.02% |      722987     25.04%     50.06% |      720873     24.97%     75.04% |      720696     24.96%    100.00%
system.ruby.Directory_Controller.M_PutML1C1_0.Progress::total      2886843                      
system.ruby.Directory_Controller.Progress |     2079091     25.01%     25.01% |     2083792     25.07%     50.08% |     2075988     24.97%     75.05% |     2073916     24.95%    100.00%
system.ruby.Directory_Controller.Progress::total      8312787                      
system.ruby.Directory_Controller.S.deallocTBE |      646746     24.99%     24.99% |      650330     25.13%     50.13% |      644849     24.92%     75.05% |      645696     24.95%    100.00%
system.ruby.Directory_Controller.S.deallocTBE::total      2587621                      
system.ruby.Directory_Controller.S_GetML1C1_0.Progress |      255253     24.98%     24.98% |      255938     25.05%     50.03% |      255431     25.00%     75.02% |      255231     24.98%    100.00%
system.ruby.Directory_Controller.S_GetML1C1_0.Progress::total      1021853                      
system.ruby.Directory_Controller.S_GetML1C1_1.Progress |           6      4.03%      4.03% |          19     12.75%     16.78% |          67     44.97%     61.74% |          57     38.26%    100.00%
system.ruby.Directory_Controller.S_GetML1C1_1.Progress::total          149                      
system.ruby.Directory_Controller.S_GetML1C1_1.Stallreqto_in |           0      0.00%      0.00% |           3     10.34%     10.34% |          17     58.62%     68.97% |           9     31.03%    100.00%
system.ruby.Directory_Controller.S_GetML1C1_1.Stallreqto_in::total           29                      
system.ruby.Directory_Controller.S_GetML1C1_2.Progress |           3     33.33%     33.33% |           0      0.00%     33.33% |           3     33.33%     66.67% |           3     33.33%    100.00%
system.ruby.Directory_Controller.S_GetML1C1_2.Progress::total            9                      
system.ruby.Directory_Controller.S_GetML1C1_2.Stallreqto_in |           3     33.33%     33.33% |           0      0.00%     33.33% |           4     44.44%     77.78% |           2     22.22%    100.00%
system.ruby.Directory_Controller.S_GetML1C1_2.Stallreqto_in::total            9                      
system.ruby.Directory_Controller.S_GetSL1C1_0.Progress |       12990     25.09%     25.09% |       13239     25.57%     50.66% |       11492     22.20%     72.86% |       14054     27.14%    100.00%
system.ruby.Directory_Controller.S_GetSL1C1_0.Progress::total        51775                      
system.ruby.Directory_Controller.S_GetSL1C1_0.Stallreqto_in |         228     35.19%     35.19% |         105     16.20%     51.39% |         186     28.70%     80.09% |         129     19.91%    100.00%
system.ruby.Directory_Controller.S_GetSL1C1_0.Stallreqto_in::total          648                      
system.ruby.Directory_Controller.Stallreqto_in |         394     28.35%     28.35% |         223     16.04%     44.39% |         465     33.45%     77.84% |         308     22.16%    100.00%
system.ruby.Directory_Controller.Stallreqto_in::total         1390                      
system.ruby.Directory_Controller.allocTBE |          10      6.49%      6.49% |          16     10.39%     16.88% |          66     42.86%     59.74% |          62     40.26%    100.00%
system.ruby.Directory_Controller.allocTBE::total          154                      
system.ruby.Directory_Controller.deallocTBE |     2457310     25.01%     25.01% |     2464641     25.08%     50.09% |     2453520     24.97%     75.06% |     2449996     24.94%    100.00%
system.ruby.Directory_Controller.deallocTBE::total      9825467                      
system.ruby.IFETCH.hit_latency_hist_seqr::bucket_size            1                      
system.ruby.IFETCH.hit_latency_hist_seqr::max_bucket            9                      
system.ruby.IFETCH.hit_latency_hist_seqr::samples   1343700147                      
system.ruby.IFETCH.hit_latency_hist_seqr |  1343700147    100.00%    100.00% |           0      0.00%    100.00% |           0      0.00%    100.00% |           0      0.00%    100.00% |           0      0.00%    100.00% |           0      0.00%    100.00% |           0      0.00%    100.00% |           0      0.00%    100.00% |           0      0.00%    100.00% |           0      0.00%    100.00%
system.ruby.IFETCH.hit_latency_hist_seqr::total   1343700147                      
system.ruby.IFETCH.latency_hist_seqr::bucket_size           32                      
system.ruby.IFETCH.latency_hist_seqr::max_bucket          319                      
system.ruby.IFETCH.latency_hist_seqr::samples   1343809937                      
system.ruby.IFETCH.latency_hist_seqr::mean     0.000000                      
system.ruby.IFETCH.latency_hist_seqr::stdev     0.004556                      
system.ruby.IFETCH.latency_hist_seqr     |  1343809936    100.00%    100.00% |           0      0.00%    100.00% |           0      0.00%    100.00% |           0      0.00%    100.00% |           0      0.00%    100.00% |           1      0.00%    100.00% |           0      0.00%    100.00% |           0      0.00%    100.00% |           0      0.00%    100.00% |           0      0.00%    100.00%
system.ruby.IFETCH.latency_hist_seqr::total   1343809937                      
system.ruby.IFETCH.miss_latency_hist_seqr::bucket_size           32                      
system.ruby.IFETCH.miss_latency_hist_seqr::max_bucket          319                      
system.ruby.IFETCH.miss_latency_hist_seqr::samples       109790                      
system.ruby.IFETCH.miss_latency_hist_seqr::mean     0.001521                      
system.ruby.IFETCH.miss_latency_hist_seqr::stdev     0.504005                      
system.ruby.IFETCH.miss_latency_hist_seqr |      109789    100.00%    100.00% |           0      0.00%    100.00% |           0      0.00%    100.00% |           0      0.00%    100.00% |           0      0.00%    100.00% |           1      0.00%    100.00% |           0      0.00%    100.00% |           0      0.00%    100.00% |           0      0.00%    100.00% |           0      0.00%    100.00%
system.ruby.IFETCH.miss_latency_hist_seqr::total       109790                      
system.ruby.L1Cache_Controller.I.allocI_load |      826092     32.57%     32.57% |      548120     21.61%     54.18% |      586320     23.12%     77.30% |      575892     22.70%    100.00%
system.ruby.L1Cache_Controller.I.allocI_load::total      2536424                      
system.ruby.L1Cache_Controller.I.allocI_store |      681119     36.47%     36.47% |      387516     20.75%     57.22% |      400769     21.46%     78.68% |      398088     21.32%    100.00%
system.ruby.L1Cache_Controller.I.allocI_store::total      1867492                      
system.ruby.L1Cache_Controller.I.deallocfwdfrom_in |     1506187     34.23%     34.23% |      934628     21.24%     55.47% |      986082     22.41%     77.89% |      972967     22.11%    100.00%
system.ruby.L1Cache_Controller.I.deallocfwdfrom_in::total      4399864                      
system.ruby.L1Cache_Controller.I_store.Progress |          18     52.94%     52.94% |           4     11.76%     64.71% |           7     20.59%     85.29% |           5     14.71%    100.00%
system.ruby.L1Cache_Controller.I_store.Progress::total           34                      
system.ruby.L1Cache_Controller.I_store.Stallfwdfrom_in |           9     28.12%     28.12% |           8     25.00%     53.12% |          12     37.50%     90.62% |           3      9.38%    100.00%
system.ruby.L1Cache_Controller.I_store.Stallfwdfrom_in::total           32                      
system.ruby.L1Cache_Controller.M.MloadMEvent |    70819771     62.97%     62.97% |    13902899     12.36%     75.33% |    13877502     12.34%     87.67% |    13869884     12.33%    100.00%
system.ruby.L1Cache_Controller.M.MloadMEvent::total    112470056                      
system.ruby.L1Cache_Controller.M.MstoreMEvent |    63433146     60.01%     60.01% |    14106769     13.34%     73.35% |    14086283     13.33%     86.67% |    14086626     13.33%    100.00%
system.ruby.L1Cache_Controller.M.MstoreMEvent::total    105712824                      
system.ruby.L1Cache_Controller.M.allocTBE |     1118621     38.75%     38.75% |      576165     19.96%     58.71% |      596194     20.65%     79.36% |      595863     20.64%    100.00%
system.ruby.L1Cache_Controller.M.allocTBE::total      2886843                      
system.ruby.L1Cache_Controller.M.externalstoreMrespfrom_in |     1119224     38.73%     38.73% |      576872     19.96%     58.70% |      596856     20.66%     79.35% |      596554     20.65%    100.00%
system.ruby.L1Cache_Controller.M.externalstoreMrespfrom_in::total      2889506                      
system.ruby.L1Cache_Controller.M_evict.Progress |     1118621     38.75%     38.75% |      576165     19.96%     58.71% |      596194     20.65%     79.36% |      595863     20.64%    100.00%
system.ruby.L1Cache_Controller.M_evict.Progress::total      2886843                      
system.ruby.L1Cache_Controller.M_evict.Stallmandatory_in |     5312386     38.74%     38.74% |     2736878     19.96%     58.70% |     2831904     20.65%     79.36% |     2830402     20.64%    100.00%
system.ruby.L1Cache_Controller.M_evict.Stallmandatory_in::total     13711570                      
system.ruby.L1Cache_Controller.MloadMEvent |    70819771     62.97%     62.97% |    13902899     12.36%     75.33% |    13877502     12.34%     87.67% |    13869884     12.33%    100.00%
system.ruby.L1Cache_Controller.MloadMEvent::total    112470056                      
system.ruby.L1Cache_Controller.MstoreMEvent |    63433146     60.01%     60.01% |    14106769     13.34%     73.35% |    14086283     13.33%     86.67% |    14086626     13.33%    100.00%
system.ruby.L1Cache_Controller.MstoreMEvent::total    105712824                      
system.ruby.L1Cache_Controller.Progress  |     1944252     35.86%     35.86% |     1123933     20.73%     56.59% |     1182162     21.80%     78.39% |     1171415     21.61%    100.00%
system.ruby.L1Cache_Controller.Progress::total      5421762                      
system.ruby.L1Cache_Controller.S.SloadSEvent |   803167220     56.66%     56.66% |   204726067     14.44%     71.11% |   204731838     14.44%     85.55% |   204772914     14.45%    100.00%
system.ruby.L1Cache_Controller.S.SloadSEvent::total   1417398039                      
system.ruby.L1Cache_Controller.S.allocTBE |      825569     32.57%     32.57% |      547725     21.61%     54.18% |      585911     23.12%     77.30% |      575503     22.70%    100.00%
system.ruby.L1Cache_Controller.S.allocTBE::total      2534708                      
system.ruby.L1Cache_Controller.S.deallocTBE |          64     41.56%     41.56% |          35     22.73%     64.29% |          26     16.88%     81.17% |          29     18.83%    100.00%
system.ruby.L1Cache_Controller.S.deallocTBE::total          154                      
system.ruby.L1Cache_Controller.S.externalloadSrespfrom_in |      826092     32.57%     32.57% |      548120     21.61%     54.18% |      586320     23.12%     77.30% |      575892     22.70%    100.00%
system.ruby.L1Cache_Controller.S.externalloadSrespfrom_in::total      2536424                      
system.ruby.L1Cache_Controller.S_evict.Progress |      387464     25.61%     25.61% |      358369     23.69%     49.30% |      389824     25.77%     75.08% |      377037     24.92%    100.00%
system.ruby.L1Cache_Controller.S_evict.Progress::total      1512694                      
system.ruby.L1Cache_Controller.S_evict.Stallmandatory_in |     1065575     25.62%     25.62% |      985074     23.68%     49.30% |     1072440     25.78%     75.08% |     1036863     24.92%    100.00%
system.ruby.L1Cache_Controller.S_evict.Stallmandatory_in::total      4159952                      
system.ruby.L1Cache_Controller.S_store.Progress |      438149     42.86%     42.86% |      189395     18.53%     61.39% |      196137     19.19%     80.58% |      198510     19.42%    100.00%
system.ruby.L1Cache_Controller.S_store.Progress::total      1022191                      
system.ruby.L1Cache_Controller.S_store.Stallfwdfrom_in |           9     36.00%     36.00% |           4     16.00%     52.00% |           4     16.00%     68.00% |           8     32.00%    100.00%
system.ruby.L1Cache_Controller.S_store.Stallfwdfrom_in::total           25                      
system.ruby.L1Cache_Controller.SloadSEvent |   803167220     56.66%     56.66% |   204726067     14.44%     71.11% |   204731838     14.44%     85.55% |   204772914     14.45%    100.00%
system.ruby.L1Cache_Controller.SloadSEvent::total   1417398039                      
system.ruby.L1Cache_Controller.Stallfwdfrom_in |          18     31.58%     31.58% |          12     21.05%     52.63% |          16     28.07%     80.70% |          11     19.30%    100.00%
system.ruby.L1Cache_Controller.Stallfwdfrom_in::total           57                      
system.ruby.L1Cache_Controller.Stallmandatory_in |     6377961     35.69%     35.69% |     3721952     20.83%     56.51% |     3904344     21.85%     78.36% |     3867265     21.64%    100.00%
system.ruby.L1Cache_Controller.Stallmandatory_in::total     17871522                      
system.ruby.L1Cache_Controller.allocI_load |      826092     32.57%     32.57% |      548120     21.61%     54.18% |      586320     23.12%     77.30% |      575892     22.70%    100.00%
system.ruby.L1Cache_Controller.allocI_load::total      2536424                      
system.ruby.L1Cache_Controller.allocI_store |      681119     36.47%     36.47% |      387516     20.75%     57.22% |      400769     21.46%     78.68% |      398088     21.32%    100.00%
system.ruby.L1Cache_Controller.allocI_store::total      1867492                      
system.ruby.L1Cache_Controller.allocTBE  |     1944190     35.86%     35.86% |     1123890     20.73%     56.59% |     1182105     21.80%     78.39% |     1171366     21.61%    100.00%
system.ruby.L1Cache_Controller.allocTBE::total      5421551                      
system.ruby.L1Cache_Controller.deallocTBE |          64     41.56%     41.56% |          35     22.73%     64.29% |          26     16.88%     81.17% |          29     18.83%    100.00%
system.ruby.L1Cache_Controller.deallocTBE::total          154                      
system.ruby.L1Cache_Controller.deallocfwdfrom_in |     1506187     34.23%     34.23% |      934628     21.24%     55.47% |      986082     22.41%     77.89% |      972967     22.11%    100.00%
system.ruby.L1Cache_Controller.deallocfwdfrom_in::total      4399864                      
system.ruby.L1Cache_Controller.externalloadSrespfrom_in |      826092     32.57%     32.57% |      548120     21.61%     54.18% |      586320     23.12%     77.30% |      575892     22.70%    100.00%
system.ruby.L1Cache_Controller.externalloadSrespfrom_in::total      2536424                      
system.ruby.L1Cache_Controller.externalstoreMrespfrom_in |     1119224     38.73%     38.73% |      576872     19.96%     58.70% |      596856     20.66%     79.35% |      596554     20.65%    100.00%
system.ruby.L1Cache_Controller.externalstoreMrespfrom_in::total      2889506                      
system.ruby.LD.hit_latency_hist_seqr::bucket_size            1                      
system.ruby.LD.hit_latency_hist_seqr::max_bucket            9                      
system.ruby.LD.hit_latency_hist_seqr::samples    186167948                      
system.ruby.LD.hit_latency_hist_seqr     |   186167948    100.00%    100.00% |           0      0.00%    100.00% |           0      0.00%    100.00% |           0      0.00%    100.00% |           0      0.00%    100.00% |           0      0.00%    100.00% |           0      0.00%    100.00% |           0      0.00%    100.00% |           0      0.00%    100.00% |           0      0.00%    100.00%
system.ruby.LD.hit_latency_hist_seqr::total    186167948                      
system.ruby.LD.latency_hist_seqr::bucket_size            1                      
system.ruby.LD.latency_hist_seqr::max_bucket            9                      
system.ruby.LD.latency_hist_seqr::samples    188594582                      
system.ruby.LD.latency_hist_seqr         |   188594582    100.00%    100.00% |           0      0.00%    100.00% |           0      0.00%    100.00% |           0      0.00%    100.00% |           0      0.00%    100.00% |           0      0.00%    100.00% |           0      0.00%    100.00% |           0      0.00%    100.00% |           0      0.00%    100.00% |           0      0.00%    100.00%
system.ruby.LD.latency_hist_seqr::total     188594582                      
system.ruby.LD.miss_latency_hist_seqr::bucket_size            1                      
system.ruby.LD.miss_latency_hist_seqr::max_bucket            9                      
system.ruby.LD.miss_latency_hist_seqr::samples      2426634                      
system.ruby.LD.miss_latency_hist_seqr    |     2426634    100.00%    100.00% |           0      0.00%    100.00% |           0      0.00%    100.00% |           0      0.00%    100.00% |           0      0.00%    100.00% |           0      0.00%    100.00% |           0      0.00%    100.00% |           0      0.00%    100.00% |           0      0.00%    100.00% |           0      0.00%    100.00%
system.ruby.LD.miss_latency_hist_seqr::total      2426634                      
system.ruby.Locked_RMW_Read.hit_latency_hist_seqr::bucket_size            1                      
system.ruby.Locked_RMW_Read.hit_latency_hist_seqr::max_bucket            9                      
system.ruby.Locked_RMW_Read.hit_latency_hist_seqr::samples          480                      
system.ruby.Locked_RMW_Read.hit_latency_hist_seqr |         480    100.00%    100.00% |           0      0.00%    100.00% |           0      0.00%    100.00% |           0      0.00%    100.00% |           0      0.00%    100.00% |           0      0.00%    100.00% |           0      0.00%    100.00% |           0      0.00%    100.00% |           0      0.00%    100.00% |           0      0.00%    100.00%
system.ruby.Locked_RMW_Read.hit_latency_hist_seqr::total          480                      
system.ruby.Locked_RMW_Read.latency_hist_seqr::bucket_size            1                      
system.ruby.Locked_RMW_Read.latency_hist_seqr::max_bucket            9                      
system.ruby.Locked_RMW_Read.latency_hist_seqr::samples          701                      
system.ruby.Locked_RMW_Read.latency_hist_seqr |         701    100.00%    100.00% |           0      0.00%    100.00% |           0      0.00%    100.00% |           0      0.00%    100.00% |           0      0.00%    100.00% |           0      0.00%    100.00% |           0      0.00%    100.00% |           0      0.00%    100.00% |           0      0.00%    100.00% |           0      0.00%    100.00%
system.ruby.Locked_RMW_Read.latency_hist_seqr::total          701                      
system.ruby.Locked_RMW_Read.miss_latency_hist_seqr::bucket_size            1                      
system.ruby.Locked_RMW_Read.miss_latency_hist_seqr::max_bucket            9                      
system.ruby.Locked_RMW_Read.miss_latency_hist_seqr::samples          221                      
system.ruby.Locked_RMW_Read.miss_latency_hist_seqr |         221    100.00%    100.00% |           0      0.00%    100.00% |           0      0.00%    100.00% |           0      0.00%    100.00% |           0      0.00%    100.00% |           0      0.00%    100.00% |           0      0.00%    100.00% |           0      0.00%    100.00% |           0      0.00%    100.00% |           0      0.00%    100.00%
system.ruby.Locked_RMW_Read.miss_latency_hist_seqr::total          221                      
system.ruby.Locked_RMW_Write.hit_latency_hist_seqr::bucket_size            1                      
system.ruby.Locked_RMW_Write.hit_latency_hist_seqr::max_bucket            9                      
system.ruby.Locked_RMW_Write.hit_latency_hist_seqr::samples          701                      
system.ruby.Locked_RMW_Write.hit_latency_hist_seqr |         701    100.00%    100.00% |           0      0.00%    100.00% |           0      0.00%    100.00% |           0      0.00%    100.00% |           0      0.00%    100.00% |           0      0.00%    100.00% |           0      0.00%    100.00% |           0      0.00%    100.00% |           0      0.00%    100.00% |           0      0.00%    100.00%
system.ruby.Locked_RMW_Write.hit_latency_hist_seqr::total          701                      
system.ruby.Locked_RMW_Write.latency_hist_seqr::bucket_size            1                      
system.ruby.Locked_RMW_Write.latency_hist_seqr::max_bucket            9                      
system.ruby.Locked_RMW_Write.latency_hist_seqr::samples          701                      
system.ruby.Locked_RMW_Write.latency_hist_seqr |         701    100.00%    100.00% |           0      0.00%    100.00% |           0      0.00%    100.00% |           0      0.00%    100.00% |           0      0.00%    100.00% |           0      0.00%    100.00% |           0      0.00%    100.00% |           0      0.00%    100.00% |           0      0.00%    100.00% |           0      0.00%    100.00%
system.ruby.Locked_RMW_Write.latency_hist_seqr::total          701                      
system.ruby.RMW_Read.hit_latency_hist_seqr::bucket_size            1                      
system.ruby.RMW_Read.hit_latency_hist_seqr::max_bucket            9                      
system.ruby.RMW_Read.hit_latency_hist_seqr::samples      2117692                      
system.ruby.RMW_Read.hit_latency_hist_seqr |     2117692    100.00%    100.00% |           0      0.00%    100.00% |           0      0.00%    100.00% |           0      0.00%    100.00% |           0      0.00%    100.00% |           0      0.00%    100.00% |           0      0.00%    100.00% |           0      0.00%    100.00% |           0      0.00%    100.00% |           0      0.00%    100.00%
system.ruby.RMW_Read.hit_latency_hist_seqr::total      2117692                      
system.ruby.RMW_Read.latency_hist_seqr::bucket_size            1                      
system.ruby.RMW_Read.latency_hist_seqr::max_bucket            9                      
system.ruby.RMW_Read.latency_hist_seqr::samples      2118649                      
system.ruby.RMW_Read.latency_hist_seqr   |     2118649    100.00%    100.00% |           0      0.00%    100.00% |           0      0.00%    100.00% |           0      0.00%    100.00% |           0      0.00%    100.00% |           0      0.00%    100.00% |           0      0.00%    100.00% |           0      0.00%    100.00% |           0      0.00%    100.00% |           0      0.00%    100.00%
system.ruby.RMW_Read.latency_hist_seqr::total      2118649                      
system.ruby.RMW_Read.miss_latency_hist_seqr::bucket_size            1                      
system.ruby.RMW_Read.miss_latency_hist_seqr::max_bucket            9                      
system.ruby.RMW_Read.miss_latency_hist_seqr::samples          957                      
system.ruby.RMW_Read.miss_latency_hist_seqr |         957    100.00%    100.00% |           0      0.00%    100.00% |           0      0.00%    100.00% |           0      0.00%    100.00% |           0      0.00%    100.00% |           0      0.00%    100.00% |           0      0.00%    100.00% |           0      0.00%    100.00% |           0      0.00%    100.00% |           0      0.00%    100.00%
system.ruby.RMW_Read.miss_latency_hist_seqr::total          957                      
system.ruby.ST.hit_latency_hist_seqr::bucket_size            1                      
system.ruby.ST.hit_latency_hist_seqr::max_bucket            9                      
system.ruby.ST.hit_latency_hist_seqr::samples    103593951                      
system.ruby.ST.hit_latency_hist_seqr     |   103593951    100.00%    100.00% |           0      0.00%    100.00% |           0      0.00%    100.00% |           0      0.00%    100.00% |           0      0.00%    100.00% |           0      0.00%    100.00% |           0      0.00%    100.00% |           0      0.00%    100.00% |           0      0.00%    100.00% |           0      0.00%    100.00%
system.ruby.ST.hit_latency_hist_seqr::total    103593951                      
system.ruby.ST.latency_hist_seqr::bucket_size            1                      
system.ruby.ST.latency_hist_seqr::max_bucket            9                      
system.ruby.ST.latency_hist_seqr::samples    106482279                      
system.ruby.ST.latency_hist_seqr         |   106482279    100.00%    100.00% |           0      0.00%    100.00% |           0      0.00%    100.00% |           0      0.00%    100.00% |           0      0.00%    100.00% |           0      0.00%    100.00% |           0      0.00%    100.00% |           0      0.00%    100.00% |           0      0.00%    100.00% |           0      0.00%    100.00%
system.ruby.ST.latency_hist_seqr::total     106482279                      
system.ruby.ST.miss_latency_hist_seqr::bucket_size            1                      
system.ruby.ST.miss_latency_hist_seqr::max_bucket            9                      
system.ruby.ST.miss_latency_hist_seqr::samples      2888328                      
system.ruby.ST.miss_latency_hist_seqr    |     2888328    100.00%    100.00% |           0      0.00%    100.00% |           0      0.00%    100.00% |           0      0.00%    100.00% |           0      0.00%    100.00% |           0      0.00%    100.00% |           0      0.00%    100.00% |           0      0.00%    100.00% |           0      0.00%    100.00% |           0      0.00%    100.00%
system.ruby.ST.miss_latency_hist_seqr::total      2888328                      
system.ruby.dir_cntrl0.fwdFrom.avg_buf_msgs     0.002951                       # Average number of messages in buffer
system.ruby.dir_cntrl0.fwdFrom.avg_stall_time  2999.927103                       # Average number of cycles messages are stalled in this MB
system.ruby.dir_cntrl0.reqTo.avg_buf_msgs     0.001100                       # Average number of messages in buffer
system.ruby.dir_cntrl0.reqTo.avg_stall_time  3859.350140                       # Average number of cycles messages are stalled in this MB
system.ruby.dir_cntrl0.requestToMemory.avg_buf_msgs     0.000929                       # Average number of messages in buffer
system.ruby.dir_cntrl0.requestToMemory.avg_stall_time   499.999821                       # Average number of cycles messages are stalled in this MB
system.ruby.dir_cntrl0.respFrom.avg_buf_msgs     0.003638                       # Average number of messages in buffer
system.ruby.dir_cntrl0.respFrom.avg_stall_time  3000.020359                       # Average number of cycles messages are stalled in this MB
system.ruby.dir_cntrl0.respTo.avg_buf_msgs     0.000000                       # Average number of messages in buffer
system.ruby.dir_cntrl0.respTo.avg_stall_time  7359.502863                       # Average number of cycles messages are stalled in this MB
system.ruby.dir_cntrl0.responseFromMemory.avg_buf_msgs     0.001670                       # Average number of messages in buffer
system.ruby.dir_cntrl0.responseFromMemory.avg_stall_time   499.999797                       # Average number of cycles messages are stalled in this MB
system.ruby.dir_cntrl1.fwdFrom.avg_buf_msgs     0.002960                       # Average number of messages in buffer
system.ruby.dir_cntrl1.fwdFrom.avg_stall_time  2999.926567                       # Average number of cycles messages are stalled in this MB
system.ruby.dir_cntrl1.reqTo.avg_buf_msgs     0.001102                       # Average number of messages in buffer
system.ruby.dir_cntrl1.reqTo.avg_stall_time  4613.539923                       # Average number of cycles messages are stalled in this MB
system.ruby.dir_cntrl1.requestToMemory.avg_buf_msgs     0.000931                       # Average number of messages in buffer
system.ruby.dir_cntrl1.requestToMemory.avg_stall_time   499.999855                       # Average number of cycles messages are stalled in this MB
system.ruby.dir_cntrl1.respFrom.avg_buf_msgs     0.003649                       # Average number of messages in buffer
system.ruby.dir_cntrl1.respFrom.avg_stall_time  3000.026120                       # Average number of cycles messages are stalled in this MB
system.ruby.dir_cntrl1.respTo.avg_buf_msgs     0.000000                       # Average number of messages in buffer
system.ruby.dir_cntrl1.respTo.avg_stall_time  7359.494172                       # Average number of cycles messages are stalled in this MB
system.ruby.dir_cntrl1.responseFromMemory.avg_buf_msgs     0.001672                       # Average number of messages in buffer
system.ruby.dir_cntrl1.responseFromMemory.avg_stall_time   499.999831                       # Average number of cycles messages are stalled in this MB
system.ruby.dir_cntrl2.fwdFrom.avg_buf_msgs     0.002945                       # Average number of messages in buffer
system.ruby.dir_cntrl2.fwdFrom.avg_stall_time  2999.970778                       # Average number of cycles messages are stalled in this MB
system.ruby.dir_cntrl2.reqTo.avg_buf_msgs     0.001098                       # Average number of messages in buffer
system.ruby.dir_cntrl2.reqTo.avg_stall_time  4489.451026                       # Average number of cycles messages are stalled in this MB
system.ruby.dir_cntrl2.requestToMemory.avg_buf_msgs     0.000928                       # Average number of messages in buffer
system.ruby.dir_cntrl2.requestToMemory.avg_stall_time   500.000189                       # Average number of cycles messages are stalled in this MB
system.ruby.dir_cntrl2.respFrom.avg_buf_msgs     0.003633                       # Average number of messages in buffer
system.ruby.dir_cntrl2.respFrom.avg_stall_time  3000.022218                       # Average number of cycles messages are stalled in this MB
system.ruby.dir_cntrl2.respTo.avg_buf_msgs     0.000000                       # Average number of messages in buffer
system.ruby.dir_cntrl2.respTo.avg_stall_time  7360.681680                       # Average number of cycles messages are stalled in this MB
system.ruby.dir_cntrl2.responseFromMemory.avg_buf_msgs     0.001668                       # Average number of messages in buffer
system.ruby.dir_cntrl2.responseFromMemory.avg_stall_time   499.999970                       # Average number of cycles messages are stalled in this MB
system.ruby.dir_cntrl3.fwdFrom.avg_buf_msgs     0.002941                       # Average number of messages in buffer
system.ruby.dir_cntrl3.fwdFrom.avg_stall_time  2999.970315                       # Average number of cycles messages are stalled in this MB
system.ruby.dir_cntrl3.reqTo.avg_buf_msgs     0.001096                       # Average number of messages in buffer
system.ruby.dir_cntrl3.reqTo.avg_stall_time  5300.064299                       # Average number of cycles messages are stalled in this MB
system.ruby.dir_cntrl3.requestToMemory.avg_buf_msgs     0.000927                       # Average number of messages in buffer
system.ruby.dir_cntrl3.requestToMemory.avg_stall_time   499.999889                       # Average number of cycles messages are stalled in this MB
system.ruby.dir_cntrl3.respFrom.avg_buf_msgs     0.003628                       # Average number of messages in buffer
system.ruby.dir_cntrl3.respFrom.avg_stall_time  3000.024007                       # Average number of cycles messages are stalled in this MB
system.ruby.dir_cntrl3.respTo.avg_buf_msgs     0.000000                       # Average number of messages in buffer
system.ruby.dir_cntrl3.respTo.avg_stall_time  7639.975736                       # Average number of cycles messages are stalled in this MB
system.ruby.dir_cntrl3.responseFromMemory.avg_buf_msgs     0.001665                       # Average number of messages in buffer
system.ruby.dir_cntrl3.responseFromMemory.avg_stall_time   499.999865                       # Average number of cycles messages are stalled in this MB
system.ruby.hit_latency_hist_seqr::bucket_size            1                      
system.ruby.hit_latency_hist_seqr::max_bucket            9                      
system.ruby.hit_latency_hist_seqr::samples   1635580919                      
system.ruby.hit_latency_hist_seqr        |  1635580919    100.00%    100.00% |           0      0.00%    100.00% |           0      0.00%    100.00% |           0      0.00%    100.00% |           0      0.00%    100.00% |           0      0.00%    100.00% |           0      0.00%    100.00% |           0      0.00%    100.00% |           0      0.00%    100.00% |           0      0.00%    100.00%
system.ruby.hit_latency_hist_seqr::total   1635580919                      
system.ruby.l1_cntrl0.cache.demand_accesses            0                       # Number of cache demand accesses
system.ruby.l1_cntrl0.cache.demand_hits             0                       # Number of cache demand hits
system.ruby.l1_cntrl0.cache.demand_misses            0                       # Number of cache demand misses
system.ruby.l1_cntrl0.fully_busy_cycles            13                       # cycles for which number of transistions == max transitions
system.ruby.l1_cntrl0.fwdFrom.avg_buf_msgs     0.300980                       # Average number of messages in buffer
system.ruby.l1_cntrl0.fwdFrom.avg_stall_time  6508.802265                       # Average number of cycles messages are stalled in this MB
system.ruby.l1_cntrl0.mandatoryQueue.avg_buf_msgs     0.448249                       # Average number of messages in buffer
system.ruby.l1_cntrl0.mandatoryQueue.avg_stall_time  2632.640585                       # Average number of cycles messages are stalled in this MB
system.ruby.l1_cntrl0.reqTo.avg_buf_msgs     0.001542                       # Average number of messages in buffer
system.ruby.l1_cntrl0.reqTo.avg_stall_time   500.000000                       # Average number of cycles messages are stalled in this MB
system.ruby.l1_cntrl0.respFrom.avg_buf_msgs     0.000869                       # Average number of messages in buffer
system.ruby.l1_cntrl0.respFrom.avg_stall_time 16605.441460                       # Average number of cycles messages are stalled in this MB
system.ruby.l1_cntrl0.respTo.avg_buf_msgs     0.000000                       # Average number of messages in buffer
system.ruby.l1_cntrl0.respTo.avg_stall_time   150.249220                       # Average number of cycles messages are stalled in this MB
system.ruby.l1_cntrl1.cache.demand_accesses            0                       # Number of cache demand accesses
system.ruby.l1_cntrl1.cache.demand_hits             0                       # Number of cache demand hits
system.ruby.l1_cntrl1.cache.demand_misses            0                       # Number of cache demand misses
system.ruby.l1_cntrl1.fully_busy_cycles             4                       # cycles for which number of transistions == max transitions
[...]
system.mem_ctrls1.wrQLenPdf::14                     1                       # What write queue length does an incoming req see
system.mem_ctrls1.wrQLenPdf::15                 11557                       # What write queue length does an incoming req see
system.mem_ctrls1.wrQLenPdf::16                 12436                       # What write queue length does an incoming req see
system.mem_ctrls1.wrQLenPdf::17                 36604                       # What write queue length does an incoming req see
system.mem_ctrls1.wrQLenPdf::18                 41856                       # What write queue length does an incoming req see
system.mem_ctrls1.wrQLenPdf::19                 42566                       # What write queue length does an incoming req see
system.mem_ctrls1.wrQLenPdf::20                 42561                       # What write queue length does an incoming req see
system.mem_ctrls1.wrQLenPdf::21                 42556                       # What write queue length does an incoming req see
system.mem_ctrls1.wrQLenPdf::22                 42533                       # What write queue length does an incoming req see
system.mem_ctrls1.wrQLenPdf::23                 42488                       # What write queue length does an incoming req see
system.mem_ctrls1.wrQLenPdf::24                 42495                       # What write queue length does an incoming req see
system.mem_ctrls1.wrQLenPdf::25                 42519                       # What write queue length does an incoming req see
system.mem_ctrls1.wrQLenPdf::26                 42488                       # What write queue length does an incoming req see
system.mem_ctrls1.wrQLenPdf::27                 42491                       # What write queue length does an incoming req see
system.mem_ctrls1.wrQLenPdf::28                 42352                       # What write queue length does an incoming req see
system.mem_ctrls1.wrQLenPdf::29                 42171                       # What write queue length does an incoming req see
system.mem_ctrls1.wrQLenPdf::30                 41958                       # What write queue length does an incoming req see
system.mem_ctrls1.wrQLenPdf::31                 41849                       # What write queue length does an incoming req see
system.mem_ctrls1.wrQLenPdf::32                 41841                       # What write queue length does an incoming req see
system.mem_ctrls1.wrQLenPdf::33                   101                       # What write queue length does an incoming req see
system.mem_ctrls1.wrQLenPdf::34                    10                       # What write queue length does an incoming req see
system.mem_ctrls1.wrQLenPdf::35                     0                       # What write queue length does an incoming req see
system.mem_ctrls1.wrQLenPdf::36                     0                       # What write queue length does an incoming req see
system.mem_ctrls1.wrQLenPdf::37                     0                       # What write queue length does an incoming req see
system.mem_ctrls1.wrQLenPdf::38                     0                       # What write queue length does an incoming req see
system.mem_ctrls1.wrQLenPdf::39                     0                       # What write queue length does an incoming req see
system.mem_ctrls1.wrQLenPdf::40                     0                       # What write queue length does an incoming req see
system.mem_ctrls1.wrQLenPdf::41                     0                       # What write queue length does an incoming req see
system.mem_ctrls1.wrQLenPdf::42                     0                       # What write queue length does an incoming req see
system.mem_ctrls1.wrQLenPdf::43                     0                       # What write queue length does an incoming req see
system.mem_ctrls1.wrQLenPdf::44                     0                       # What write queue length does an incoming req see
system.mem_ctrls1.wrQLenPdf::45                     0                       # What write queue length does an incoming req see
system.mem_ctrls1.wrQLenPdf::46                     0                       # What write queue length does an incoming req see
system.mem_ctrls1.wrQLenPdf::47                     0                       # What write queue length does an incoming req see
system.mem_ctrls1.wrQLenPdf::48                     0                       # What write queue length does an incoming req see
system.mem_ctrls1.wrQLenPdf::49                     0                       # What write queue length does an incoming req see
system.mem_ctrls1.wrQLenPdf::50                     0                       # What write queue length does an incoming req see
system.mem_ctrls1.wrQLenPdf::51                     0                       # What write queue length does an incoming req see
system.mem_ctrls1.wrQLenPdf::52                     0                       # What write queue length does an incoming req see
system.mem_ctrls1.wrQLenPdf::53                     0                       # What write queue length does an incoming req see
system.mem_ctrls1.wrQLenPdf::54                     0                       # What write queue length does an incoming req see
system.mem_ctrls1.wrQLenPdf::55                     0                       # What write queue length does an incoming req see
system.mem_ctrls1.wrQLenPdf::56                     0                       # What write queue length does an incoming req see
system.mem_ctrls1.wrQLenPdf::57                     0                       # What write queue length does an incoming req see
system.mem_ctrls1.wrQLenPdf::58                     0                       # What write queue length does an incoming req see
system.mem_ctrls1.wrQLenPdf::59                     0                       # What write queue length does an incoming req see
system.mem_ctrls1.wrQLenPdf::60                     0                       # What write queue length does an incoming req see
system.mem_ctrls1.wrQLenPdf::61                     0                       # What write queue length does an incoming req see
system.mem_ctrls1.wrQLenPdf::62                     0                       # What write queue length does an incoming req see
system.mem_ctrls1.wrQLenPdf::63                     0                       # What write queue length does an incoming req see
system.mem_ctrls1.bytesPerActivate::samples       905940                       # Bytes accessed per row activation
system.mem_ctrls1.bytesPerActivate::mean   129.535537                       # Bytes accessed per row activation
system.mem_ctrls1.bytesPerActivate::gmean    95.406285                       # Bytes accessed per row activation
system.mem_ctrls1.bytesPerActivate::stdev   161.789010                       # Bytes accessed per row activation
system.mem_ctrls1.bytesPerActivate::0-127       569180     62.83%     62.83% # Bytes accessed per row activation
system.mem_ctrls1.bytesPerActivate::128-255       253334     27.96%     90.79% # Bytes accessed per row activation
system.mem_ctrls1.bytesPerActivate::256-383        28608      3.16%     93.95% # Bytes accessed per row activation
system.mem_ctrls1.bytesPerActivate::384-511        15143      1.67%     95.62% # Bytes accessed per row activation
system.mem_ctrls1.bytesPerActivate::512-639        10640      1.17%     96.80% # Bytes accessed per row activation
system.mem_ctrls1.bytesPerActivate::640-767         6076      0.67%     97.47% # Bytes accessed per row activation
system.mem_ctrls1.bytesPerActivate::768-895         5011      0.55%     98.02% # Bytes accessed per row activation
system.mem_ctrls1.bytesPerActivate::896-1023         4775      0.53%     98.55% # Bytes accessed per row activation
system.mem_ctrls1.bytesPerActivate::1024-1151        13173      1.45%    100.00% # Bytes accessed per row activation
system.mem_ctrls1.bytesPerActivate::total       905940                       # Bytes accessed per row activation
system.mem_ctrls1.rdPerTurnAround::samples        41829                       # Reads before turning the bus around for writes
system.mem_ctrls1.rdPerTurnAround::mean     27.210500                       # Reads before turning the bus around for writes
system.mem_ctrls1.rdPerTurnAround::stdev    17.522370                       # Reads before turning the bus around for writes
system.mem_ctrls1.rdPerTurnAround::0-15          5339     12.76%     12.76% # Reads before turning the bus around for writes
system.mem_ctrls1.rdPerTurnAround::16-31        25032     59.84%     72.61% # Reads before turning the bus around for writes
system.mem_ctrls1.rdPerTurnAround::32-47         7748     18.52%     91.13% # Reads before turning the bus around for writes
system.mem_ctrls1.rdPerTurnAround::48-63         2083      4.98%     96.11% # Reads before turning the bus around for writes
system.mem_ctrls1.rdPerTurnAround::64-79          818      1.96%     98.07% # Reads before turning the bus around for writes
system.mem_ctrls1.rdPerTurnAround::80-95          339      0.81%     98.88% # Reads before turning the bus around for writes
system.mem_ctrls1.rdPerTurnAround::96-111          191      0.46%     99.33% # Reads before turning the bus around for writes
system.mem_ctrls1.rdPerTurnAround::112-127          111      0.27%     99.60% # Reads before turning the bus around for writes
system.mem_ctrls1.rdPerTurnAround::128-143           66      0.16%     99.76% # Reads before turning the bus around for writes
system.mem_ctrls1.rdPerTurnAround::144-159           43      0.10%     99.86% # Reads before turning the bus around for writes
system.mem_ctrls1.rdPerTurnAround::160-175           30      0.07%     99.93% # Reads before turning the bus around for writes
system.mem_ctrls1.rdPerTurnAround::176-191            8      0.02%     99.95% # Reads before turning the bus around for writes
system.mem_ctrls1.rdPerTurnAround::192-207            9      0.02%     99.97% # Reads before turning the bus around for writes
system.mem_ctrls1.rdPerTurnAround::208-223            8      0.02%     99.99% # Reads before turning the bus around for writes
system.mem_ctrls1.rdPerTurnAround::224-239            2      0.00%    100.00% # Reads before turning the bus around for writes
system.mem_ctrls1.rdPerTurnAround::240-255            1      0.00%    100.00% # Reads before turning the bus around for writes
system.mem_ctrls1.rdPerTurnAround::368-383            1      0.00%    100.00% # Reads before turning the bus around for writes
system.mem_ctrls1.rdPerTurnAround::total        41829                       # Reads before turning the bus around for writes
system.mem_ctrls1.wrPerTurnAround::samples        41829                       # Writes before turning the bus around for reads
system.mem_ctrls1.wrPerTurnAround::mean     16.625571                       # Writes before turning the bus around for reads
system.mem_ctrls1.wrPerTurnAround::gmean    16.596654                       # Writes before turning the bus around for reads
system.mem_ctrls1.wrPerTurnAround::stdev     1.002217                       # Writes before turning the bus around for reads
system.mem_ctrls1.wrPerTurnAround::16           29518     70.57%     70.57% # Writes before turning the bus around for reads
system.mem_ctrls1.wrPerTurnAround::17             456      1.09%     71.66% # Writes before turning the bus around for reads
system.mem_ctrls1.wrPerTurnAround::18           10084     24.11%     95.77% # Writes before turning the bus around for reads
system.mem_ctrls1.wrPerTurnAround::19            1562      3.73%     99.50% # Writes before turning the bus around for reads
system.mem_ctrls1.wrPerTurnAround::20             188      0.45%     99.95% # Writes before turning the bus around for reads
system.mem_ctrls1.wrPerTurnAround::21              21      0.05%    100.00% # Writes before turning the bus around for reads
system.mem_ctrls1.wrPerTurnAround::total        41829                       # Writes before turning the bus around for reads
system.mem_ctrls1.bytesReadDRAM              72844096                       # Total number of bytes read from DRAM
system.mem_ctrls1.bytesReadWrQ               14245376                       # Total number of bytes read from write queue
system.mem_ctrls1.bytesWritten               44507584                       # Total number of bytes written to DRAM
system.mem_ctrls1.bytesReadSys               87089472                       # Total read bytes from the system interface side
system.mem_ctrls1.bytesWrittenSys            46272192                       # Total written bytes from the system interface side
system.mem_ctrls1.avgRdBW                       65.10                       # Average DRAM read bandwidth in MiByte/s
system.mem_ctrls1.avgWrBW                       39.78                       # Average achieved write bandwidth in MiByte/s
system.mem_ctrls1.avgRdBWSys                    77.83                       # Average system read bandwidth in MiByte/s
system.mem_ctrls1.avgWrBWSys                    41.35                       # Average system write bandwidth in MiByte/s
system.mem_ctrls1.peakBW                     12800.00                       # Theoretical peak bandwidth in MiByte/s
system.mem_ctrls1.busUtil                        0.82                       # Data bus utilization in percentage
system.mem_ctrls1.busUtilRead                    0.51                       # Data bus utilization in percentage for reads
system.mem_ctrls1.busUtilWrite                   0.31                       # Data bus utilization in percentage for writes
system.mem_ctrls1.totGap                 1118958464000                       # Total gap between requests
system.mem_ctrls1.avgGap                    536985.96                       # Average gap between requests
system.mem_ctrls1.masterReadBytes::.ruby.dir_cntrl1     72844096                       # Per-master bytes read from memory
system.mem_ctrls1.masterWriteBytes::.ruby.dir_cntrl1     44507584                       # Per-master bytes write to memory
system.mem_ctrls1.masterReadRate::.ruby.dir_cntrl1 65099881.652317471802                       # Per-master bytes read from memory rate (Bytes/sec)
system.mem_ctrls1.masterWriteRate::.ruby.dir_cntrl1 39775885.900630556047                       # Per-master bytes write to memory rate (Bytes/sec)
system.mem_ctrls1.masterReadAccesses::.ruby.dir_cntrl1      1360773                       # Per-master read serviced memory accesses
system.mem_ctrls1.masterWriteAccesses::.ruby.dir_cntrl1       723003                       # Per-master write serviced memory accesses
system.mem_ctrls1.masterReadTotalLat::.ruby.dir_cntrl1  40966621425                       # Per-master read total memory access latency
system.mem_ctrls1.masterWriteTotalLat::.ruby.dir_cntrl1 27235802197063                       # Per-master write total memory access latency
system.mem_ctrls1.masterReadAvgLat::.ruby.dir_cntrl1     30105.40                       # Per-master read average memory access latency
system.mem_ctrls1.masterWriteAvgLat::.ruby.dir_cntrl1  37670386.15                       # Per-master write average memory access latency
system.mem_ctrls1.pageHitRate                   50.59                       # Row buffer hit rate, read and write combined
system.mem_ctrls1.rank1.actEnergy          3243473520                       # Energy for activate commands per rank (pJ)
system.mem_ctrls1.rank1.preEnergy          1723935675                       # Energy for precharge commands per rank (pJ)
system.mem_ctrls1.rank1.readEnergy         4195185540                       # Energy for read commands per rank (pJ)
system.mem_ctrls1.rank1.writeEnergy        1809518220                       # Energy for write commands per rank (pJ)
system.mem_ctrls1.rank1.refreshEnergy    88329299760.000015                       # Energy for refresh commands per rank (pJ)
system.mem_ctrls1.rank1.actBackEnergy    242328300330                       # Energy for active background per rank (pJ)
system.mem_ctrls1.rank1.preBackEnergy    225614304480                       # Energy for precharge background per rank (pJ)
system.mem_ctrls1.rank1.actPowerDownEnergy            0                       # Energy for active power-down per rank (pJ)
system.mem_ctrls1.rank1.prePowerDownEnergy            0                       # Energy for precharge power-down per rank (pJ)
system.mem_ctrls1.rank1.selfRefreshEnergy            0                       # Energy for self refresh per rank (pJ)
system.mem_ctrls1.rank1.totalEnergy      567244017525                       # Total energy per rank (pJ)
system.mem_ctrls1.rank1.averagePower       506.939072                       # Core power per rank (mW)
system.mem_ctrls1.rank1.totalIdleTime               0                       # Total Idle time Per DRAM Rank
system.mem_ctrls1.rank1.memoryStateTime::IDLE 584243328175                       # Time in different power states
system.mem_ctrls1.rank1.memoryStateTime::REF  37364340000                       # Time in different power states
system.mem_ctrls1.rank1.memoryStateTime::SREF            0                       # Time in different power states
system.mem_ctrls1.rank1.memoryStateTime::PRE_PDN            0                       # Time in different power states
system.mem_ctrls1.rank1.memoryStateTime::ACT 497351293825                       # Time in different power states
system.mem_ctrls1.rank1.memoryStateTime::ACT_PDN            0                       # Time in different power states
system.mem_ctrls1.rank0.actEnergy          3224966640                       # Energy for activate commands per rank (pJ)
system.mem_ctrls1.rank0.preEnergy          1714106625                       # Energy for precharge commands per rank (pJ)
system.mem_ctrls1.rank0.readEnergy         3931483920                       # Energy for read commands per rank (pJ)
system.mem_ctrls1.rank0.writeEnergy        1820631600                       # Energy for write commands per rank (pJ)
system.mem_ctrls1.rank0.refreshEnergy    88329299760.000015                       # Energy for refresh commands per rank (pJ)
system.mem_ctrls1.rank0.actBackEnergy    230319100290                       # Energy for active background per rank (pJ)
system.mem_ctrls1.rank0.preBackEnergy    235727315040                       # Energy for precharge background per rank (pJ)
system.mem_ctrls1.rank0.actPowerDownEnergy            0                       # Energy for active power-down per rank (pJ)
system.mem_ctrls1.rank0.prePowerDownEnergy            0                       # Energy for precharge power-down per rank (pJ)
system.mem_ctrls1.rank0.selfRefreshEnergy            0                       # Energy for self refresh per rank (pJ)
system.mem_ctrls1.rank0.totalEnergy      565066903875                       # Total energy per rank (pJ)
system.mem_ctrls1.rank0.averagePower       504.993412                       # Core power per rank (mW)
system.mem_ctrls1.rank0.totalIdleTime               0                       # Total Idle time Per DRAM Rank
system.mem_ctrls1.rank0.memoryStateTime::IDLE 610637246503                       # Time in different power states
system.mem_ctrls1.rank0.memoryStateTime::REF  37364340000                       # Time in different power states
system.mem_ctrls1.rank0.memoryStateTime::SREF            0                       # Time in different power states
system.mem_ctrls1.rank0.memoryStateTime::PRE_PDN            0                       # Time in different power states
system.mem_ctrls1.rank0.memoryStateTime::ACT 470957375497                       # Time in different power states
system.mem_ctrls1.rank0.memoryStateTime::ACT_PDN            0                       # Time in different power states
system.mem_ctrls1.power_state.pwrStateResidencyTicks::UNDEFINED 1118958962000                       # Cumulative time (in ticks) in various power states
system.cpu_voltage_domain.voltage                   1                       # Voltage in Volts

---------- End Simulation Statistics   ----------
