
---------- Begin Simulation Statistics ----------
final_tick                               108811436837001                       # Number of ticks from beginning of simulation (restored from checkpoints and never reset)
host_inst_rate                                8164671                       # Simulator instruction rate (inst/s)
host_mem_usage                                2027512                       # Number of bytes of host memory used
host_op_rate                                  8303934                       # Simulator op (including micro ops) rate (op/s)
host_seconds                                   622.03                       # Real time elapsed on the host
host_tick_rate                             8125184416                       # Simulator tick rate (ticks/s)
sim_freq                                 1000000000000                       # Frequency of simulated ticks
sim_insts                                  5078629812                       # Number of instructions simulated
sim_ops                                    5165256563                       # Number of ops (including micro ops) simulated
sim_seconds                                  5.054070                       # Number of seconds simulated
sim_ticks                                5054070130001                       # Number of ticks simulated
system.cpu0.committedInsts                          0                       # Number of instructions committed
system.cpu0.dtb.rdAccesses                          0                       # TLB accesses on read requests
system.cpu0.dtb.rdMisses                            0                       # TLB misses on read requests
system.cpu0.dtb.wrAccesses                          0                       # TLB accesses on write requests
system.cpu0.dtb.wrMisses                            0                       # TLB misses on write requests
system.cpu0.itb.rdAccesses                          0                       # TLB accesses on read requests
system.cpu0.itb.rdMisses                            0                       # TLB misses on read requests
system.cpu0.itb.wrAccesses                          0                       # TLB accesses on write requests
system.cpu0.itb.wrMisses                            0                       # TLB misses on write requests
system.cpu0.kern.inst.arm                           0                       # number of arm instructions executed
system.cpu0.kern.inst.quiesce                       0                       # number of quiesce instructions executed
system.cpu0.numCoalescedMMIO                        0                       # number of coalesced memory mapped IO requests
system.cpu0.numCycles                               0                       # number of cpu cycles simulated
system.cpu0.numExitSignal                           0                       # exits due to signal delivery
system.cpu0.numHalt                                 0                       # number of VM exits due to wait for interrupt instructions
system.cpu0.numHypercalls                           0                       # number of hypercalls
system.cpu0.numIO                                   0                       # number of VM exits due to legacy IO
system.cpu0.numInterrupts                           0                       # number of interrupts delivered
system.cpu0.numMMIO                                 0                       # number of VM exits due to memory mapped IO
system.cpu0.numVMExits                              0                       # total number of KVM exits
system.cpu0.numVMHalfEntries                        0                       # number of KVM entries to finalize pending operations
system.cpu0.numWorkItemsCompleted                   0                       # number of work items this cpu completed
system.cpu0.numWorkItemsStarted                     0                       # number of work items this cpu started
system.cpu1.committedInsts                          0                       # Number of instructions committed
system.cpu1.dtb.rdAccesses                          0                       # TLB accesses on read requests
system.cpu1.dtb.rdMisses                            0                       # TLB misses on read requests
system.cpu1.dtb.wrAccesses                          0                       # TLB accesses on write requests
system.cpu1.dtb.wrMisses                            0                       # TLB misses on write requests
system.cpu1.itb.rdAccesses                          0                       # TLB accesses on read requests
system.cpu1.itb.rdMisses                            0                       # TLB misses on read requests
system.cpu1.itb.wrAccesses                          0                       # TLB accesses on write requests
system.cpu1.itb.wrMisses                            0                       # TLB misses on write requests
system.cpu1.kern.inst.arm                           0                       # number of arm instructions executed
system.cpu1.kern.inst.quiesce                       0                       # number of quiesce instructions executed
system.cpu1.numCoalescedMMIO                        0                       # number of coalesced memory mapped IO requests
system.cpu1.numCycles                               0                       # number of cpu cycles simulated
system.cpu1.numExitSignal                           0                       # exits due to signal delivery
system.cpu1.numHalt                                 0                       # number of VM exits due to wait for interrupt instructions
system.cpu1.numHypercalls                           0                       # number of hypercalls
system.cpu1.numIO                                   0                       # number of VM exits due to legacy IO
system.cpu1.numInterrupts                           0                       # number of interrupts delivered
system.cpu1.numMMIO                                 0                       # number of VM exits due to memory mapped IO
system.cpu1.numVMExits                              0                       # total number of KVM exits
system.cpu1.numVMHalfEntries                        0                       # number of KVM entries to finalize pending operations
system.cpu1.numWorkItemsCompleted                   0                       # number of work items this cpu completed
system.cpu1.numWorkItemsStarted                     0                       # number of work items this cpu started
system.cpu2.committedInsts                          0                       # Number of instructions committed
system.cpu2.dtb.rdAccesses                          0                       # TLB accesses on read requests
system.cpu2.dtb.rdMisses                            0                       # TLB misses on read requests
system.cpu2.dtb.wrAccesses                          0                       # TLB accesses on write requests
system.cpu2.dtb.wrMisses                            0                       # TLB misses on write requests
system.cpu2.itb.rdAccesses                          0                       # TLB accesses on read requests
system.cpu2.itb.rdMisses                            0                       # TLB misses on read requests
system.cpu2.itb.wrAccesses                          0                       # TLB accesses on write requests
system.cpu2.itb.wrMisses                            0                       # TLB misses on write requests
system.cpu2.kern.inst.arm                           0                       # number of arm instructions executed
system.cpu2.kern.inst.quiesce                       0                       # number of quiesce instructions executed
system.cpu2.numCoalescedMMIO                        0                       # number of coalesced memory mapped IO requests
system.cpu2.numCycles                               0                       # number of cpu cycles simulated
system.cpu2.numExitSignal                           0                       # exits due to signal delivery
system.cpu2.numHalt                                 0                       # number of VM exits due to wait for interrupt instructions
system.cpu2.numHypercalls                           0                       # number of hypercalls
system.cpu2.numIO                                   0                       # number of VM exits due to legacy IO
system.cpu2.numInterrupts                           0                       # number of interrupts delivered
system.cpu2.numMMIO                                 0                       # number of VM exits due to memory mapped IO
system.cpu2.numVMExits                              0                       # total number of KVM exits
system.cpu2.numVMHalfEntries                        0                       # number of KVM entries to finalize pending operations
system.cpu2.numWorkItemsCompleted                   0                       # number of work items this cpu completed
system.cpu2.numWorkItemsStarted                     0                       # number of work items this cpu started
system.cpu3.committedInsts                          0                       # Number of instructions committed
system.cpu3.dtb.rdAccesses                          0                       # TLB accesses on read requests
system.cpu3.dtb.rdMisses                            0                       # TLB misses on read requests
system.cpu3.dtb.wrAccesses                          0                       # TLB accesses on write requests
system.cpu3.dtb.wrMisses                            0                       # TLB misses on write requests
system.cpu3.itb.rdAccesses                          0                       # TLB accesses on read requests
system.cpu3.itb.rdMisses                            0                       # TLB misses on read requests
system.cpu3.itb.wrAccesses                          0                       # TLB accesses on write requests
system.cpu3.itb.wrMisses                            0                       # TLB misses on write requests
system.cpu3.kern.inst.arm                           0                       # number of arm instructions executed
system.cpu3.kern.inst.quiesce                       0                       # number of quiesce instructions executed
system.cpu3.numCoalescedMMIO                        0                       # number of coalesced memory mapped IO requests
system.cpu3.numCycles                               0                       # number of cpu cycles simulated
system.cpu3.numExitSignal                           0                       # exits due to signal delivery
system.cpu3.numHalt                                 0                       # number of VM exits due to wait for interrupt instructions
system.cpu3.numHypercalls                           0                       # number of hypercalls
system.cpu3.numIO                                   0                       # number of VM exits due to legacy IO
system.cpu3.numInterrupts                           0                       # number of interrupts delivered
system.cpu3.numMMIO                                 0                       # number of VM exits due to memory mapped IO
system.cpu3.numVMExits                              0                       # total number of KVM exits
system.cpu3.numVMHalfEntries                        0                       # number of KVM entries to finalize pending operations
system.cpu3.numWorkItemsCompleted                   0                       # number of work items this cpu completed
system.cpu3.numWorkItemsStarted                     0                       # number of work items this cpu started
system.pc.south_bridge.ide.disks.dma_read_bytes       258048                       # Number of bytes transfered via DMA reads (not PRD).
system.pc.south_bridge.ide.disks.dma_read_full_pages           63                       # Number of full page size DMA reads (not PRD).
system.pc.south_bridge.ide.disks.dma_read_txs           63                       # Number of DMA read transactions (not PRD).
system.pc.south_bridge.ide.disks.dma_write_bytes       110592                       # Number of bytes transfered via DMA writes.
system.pc.south_bridge.ide.disks.dma_write_full_pages           27                       # Number of full page size DMA writes.
system.pc.south_bridge.ide.disks.dma_write_txs           27                       # Number of DMA write transactions.
system.ruby.DMA_Controller.I.allocI_load |        4047    100.00%    100.00% |           0      0.00%    100.00%
system.ruby.DMA_Controller.I.allocI_load::total         4047                      
system.ruby.DMA_Controller.I.allocI_store |        1728    100.00%    100.00% |           0      0.00%    100.00%
system.ruby.DMA_Controller.I.allocI_store::total         1728                      
system.ruby.DMA_Controller.I.deallocfwdfrom_in |        4751    100.00%    100.00% |           0      0.00%    100.00%
system.ruby.DMA_Controller.I.deallocfwdfrom_in::total         4751                      
system.ruby.DMA_Controller.M.allocTBE    |        1728    100.00%    100.00% |           0      0.00%    100.00%
system.ruby.DMA_Controller.M.allocTBE::total         1728                      
system.ruby.DMA_Controller.M.externalstoreMrespfrom_in |        1728    100.00%    100.00% |           0      0.00%    100.00%
system.ruby.DMA_Controller.M.externalstoreMrespfrom_in::total         1728                      
system.ruby.DMA_Controller.M_evict.Stallmandatory_in |       19737    100.00%    100.00% |           0      0.00%    100.00%
system.ruby.DMA_Controller.M_evict.Stallmandatory_in::total        19737                      
system.ruby.DMA_Controller.S.SloadSEvent |          59    100.00%    100.00% |           0      0.00%    100.00%
system.ruby.DMA_Controller.S.SloadSEvent::total           59                      
system.ruby.DMA_Controller.S.allocTBE    |        3383    100.00%    100.00% |           0      0.00%    100.00%
system.ruby.DMA_Controller.S.allocTBE::total         3383                      
system.ruby.DMA_Controller.S.deallocTBE  |         357    100.00%    100.00% |           0      0.00%    100.00%
system.ruby.DMA_Controller.S.deallocTBE::total          357                      
system.ruby.DMA_Controller.S.externalloadSrespfrom_in |        4047    100.00%    100.00% |           0      0.00%    100.00%
system.ruby.DMA_Controller.S.externalloadSrespfrom_in::total         4047                      
system.ruby.DMA_Controller.S_evict.Stallmandatory_in |       10272    100.00%    100.00% |           0      0.00%    100.00%
system.ruby.DMA_Controller.S_evict.Stallmandatory_in::total        10272                      
system.ruby.DMA_Controller.SloadSEvent   |          59    100.00%    100.00% |           0      0.00%    100.00%
system.ruby.DMA_Controller.SloadSEvent::total           59                      
system.ruby.DMA_Controller.Stallmandatory_in |       30009    100.00%    100.00% |           0      0.00%    100.00%
system.ruby.DMA_Controller.Stallmandatory_in::total        30009                      
system.ruby.DMA_Controller.allocI_load   |        4047    100.00%    100.00% |           0      0.00%    100.00%
system.ruby.DMA_Controller.allocI_load::total         4047                      
system.ruby.DMA_Controller.allocI_store  |        1728    100.00%    100.00% |           0      0.00%    100.00%
system.ruby.DMA_Controller.allocI_store::total         1728                      
system.ruby.DMA_Controller.allocTBE      |        5111    100.00%    100.00% |           0      0.00%    100.00%
system.ruby.DMA_Controller.allocTBE::total         5111                      
system.ruby.DMA_Controller.deallocTBE    |         357    100.00%    100.00% |           0      0.00%    100.00%
system.ruby.DMA_Controller.deallocTBE::total          357                      
system.ruby.DMA_Controller.deallocfwdfrom_in |        4751    100.00%    100.00% |           0      0.00%    100.00%
system.ruby.DMA_Controller.deallocfwdfrom_in::total         4751                      
system.ruby.DMA_Controller.externalloadSrespfrom_in |        4047    100.00%    100.00% |           0      0.00%    100.00%
system.ruby.DMA_Controller.externalloadSrespfrom_in::total         4047                      
system.ruby.DMA_Controller.externalstoreMrespfrom_in |        1728    100.00%    100.00% |           0      0.00%    100.00%
system.ruby.DMA_Controller.externalstoreMrespfrom_in::total         1728                      
system.ruby.Directory_Controller.I.allocTBE |      284021     30.29%     30.29% |      266349     28.40%     58.69% |      191292     20.40%     79.09% |      196106     20.91%    100.00%
system.ruby.Directory_Controller.I.allocTBE::total       937768                      
system.ruby.Directory_Controller.I.deallocTBE |      283036     30.31%     30.31% |      265354     28.42%     58.73% |      190267     20.38%     79.10% |      195115     20.90%    100.00%
system.ruby.Directory_Controller.I.deallocTBE::total       933772                      
system.ruby.Directory_Controller.I_GetSL1C1C1_0.Stallreqto_in |          14     29.79%     29.79% |          10     21.28%     51.06% |          20     42.55%     93.62% |           3      6.38%    100.00%
system.ruby.Directory_Controller.I_GetSL1C1C1_0.Stallreqto_in::total           47                      
system.ruby.Directory_Controller.M.allocTBE |       91496     29.25%     29.25% |       82979     26.53%     55.78% |       70324     22.48%     78.26% |       67993     21.74%    100.00%
system.ruby.Directory_Controller.M.allocTBE::total       312792                      
system.ruby.Directory_Controller.M.deallocTBE |       91680     29.24%     29.24% |       83162     26.52%     55.76% |       70528     22.49%     78.26% |       68177     21.74%    100.00%
system.ruby.Directory_Controller.M.deallocTBE::total       313547                      
system.ruby.Directory_Controller.M_GetM.Progress |        2833     70.33%     70.33% |         362      8.99%     79.32% |         526     13.06%     92.38% |         307      7.62%    100.00%
system.ruby.Directory_Controller.M_GetM.Progress::total         4028                      
system.ruby.Directory_Controller.M_GetM.Stallreqto_in |           0      0.00%      0.00% |           0      0.00%      0.00% |           0      0.00%      0.00% |           1    100.00%    100.00%
system.ruby.Directory_Controller.M_GetM.Stallreqto_in::total            1                      
system.ruby.Directory_Controller.M_GetS.Progress |       18989     39.84%     39.84% |       12517     26.26%     66.11% |        8724     18.31%     84.41% |        7429     15.59%    100.00%
system.ruby.Directory_Controller.M_GetS.Progress::total        47659                      
system.ruby.Directory_Controller.M_GetS.Stallreqto_in |           2     28.57%     28.57% |           0      0.00%     28.57% |           2     28.57%     57.14% |           3     42.86%    100.00%
system.ruby.Directory_Controller.M_GetS.Stallreqto_in::total            7                      
system.ruby.Directory_Controller.M_GetS_WBL1C1C1_0.Stallreqto_in |          26     11.26%     11.26% |          31     13.42%     24.68% |          77     33.33%     58.01% |          97     41.99%    100.00%
system.ruby.Directory_Controller.M_GetS_WBL1C1C1_0.Stallreqto_in::total          231                      
system.ruby.Directory_Controller.M_PutML1C1C1_0.Stallreqto_in |           3    100.00%    100.00% |           0      0.00%    100.00% |           0      0.00%    100.00% |           0      0.00%    100.00%
system.ruby.Directory_Controller.M_PutML1C1C1_0.Stallreqto_in::total            3                      
system.ruby.Directory_Controller.Progress |       21822     42.22%     42.22% |       12879     24.92%     67.14% |        9250     17.90%     85.03% |        7736     14.97%    100.00%
system.ruby.Directory_Controller.Progress::total        51687                      
system.ruby.Directory_Controller.S.allocTBE |      474233     30.94%     30.94% |      367706     23.99%     54.94% |      327250     21.35%     76.29% |      363383     23.71%    100.00%
system.ruby.Directory_Controller.S.allocTBE::total      1532572                      
system.ruby.Directory_Controller.S.deallocTBE |      475034     30.93%     30.93% |      368518     23.99%     54.93% |      328071     21.36%     76.29% |      364190     23.71%    100.00%
system.ruby.Directory_Controller.S.deallocTBE::total      1535813                      
system.ruby.Directory_Controller.S_GetM.Stallreqto_in |           9     12.86%     12.86% |           7     10.00%     22.86% |           9     12.86%     35.71% |          45     64.29%    100.00%
system.ruby.Directory_Controller.S_GetM.Stallreqto_in::total           70                      
system.ruby.Directory_Controller.S_GetM.allocTBE |       17616     42.24%     42.24% |       10617     25.46%     67.70% |        7394     17.73%     85.43% |        6074     14.57%    100.00%
system.ruby.Directory_Controller.S_GetM.allocTBE::total        41701                      
system.ruby.Directory_Controller.S_GetM.deallocTBE |       17616     42.24%     42.24% |       10617     25.46%     67.70% |        7394     17.73%     85.43% |        6074     14.57%    100.00%
system.ruby.Directory_Controller.S_GetM.deallocTBE::total        41701                      
system.ruby.Directory_Controller.S_GetML1C1C1_2.Stallreqto_in |           4     66.67%     66.67% |           0      0.00%     66.67% |           0      0.00%     66.67% |           2     33.33%    100.00%
system.ruby.Directory_Controller.S_GetML1C1C1_2.Stallreqto_in::total            6                      
system.ruby.Directory_Controller.S_GetSL1C1C1_0.Stallreqto_in |          51     51.52%     51.52% |          16     16.16%     67.68% |          25     25.25%     92.93% |           7      7.07%    100.00%
system.ruby.Directory_Controller.S_GetSL1C1C1_0.Stallreqto_in::total           99                      
system.ruby.Directory_Controller.Stallreqto_in |         109     23.49%     23.49% |          64     13.79%     37.28% |         133     28.66%     65.95% |         158     34.05%    100.00%
system.ruby.Directory_Controller.Stallreqto_in::total          464                      
system.ruby.Directory_Controller.allocTBE |      867366     30.71%     30.71% |      727651     25.76%     56.46% |      596260     21.11%     77.57% |      633556     22.43%    100.00%
system.ruby.Directory_Controller.allocTBE::total      2824833                      
system.ruby.Directory_Controller.deallocTBE |      867366     30.71%     30.71% |      727651     25.76%     56.46% |      596260     21.11%     77.57% |      633556     22.43%    100.00%
system.ruby.Directory_Controller.deallocTBE::total      2824833                      
system.ruby.IFETCH.hit_latency_hist_seqr::bucket_size            1                      
system.ruby.IFETCH.hit_latency_hist_seqr::max_bucket            9                      
system.ruby.IFETCH.hit_latency_hist_seqr::samples    103958629                      
system.ruby.IFETCH.hit_latency_hist_seqr |   103958629    100.00%    100.00% |           0      0.00%    100.00% |           0      0.00%    100.00% |           0      0.00%    100.00% |           0      0.00%    100.00% |           0      0.00%    100.00% |           0      0.00%    100.00% |           0      0.00%    100.00% |           0      0.00%    100.00% |           0      0.00%    100.00%
system.ruby.IFETCH.hit_latency_hist_seqr::total    103958629                      
system.ruby.IFETCH.latency_hist_seqr::bucket_size            1                      
system.ruby.IFETCH.latency_hist_seqr::max_bucket            9                      
system.ruby.IFETCH.latency_hist_seqr::samples    104589957                      
system.ruby.IFETCH.latency_hist_seqr     |   104589957    100.00%    100.00% |           0      0.00%    100.00% |           0      0.00%    100.00% |           0      0.00%    100.00% |           0      0.00%    100.00% |           0      0.00%    100.00% |           0      0.00%    100.00% |           0      0.00%    100.00% |           0      0.00%    100.00% |           0      0.00%    100.00%
system.ruby.IFETCH.latency_hist_seqr::total    104589957                      
system.ruby.IFETCH.miss_latency_hist_seqr::bucket_size            1                      
system.ruby.IFETCH.miss_latency_hist_seqr::max_bucket            9                      
system.ruby.IFETCH.miss_latency_hist_seqr::samples       631328                      
system.ruby.IFETCH.miss_latency_hist_seqr |      631328    100.00%    100.00% |           0      0.00%    100.00% |           0      0.00%    100.00% |           0      0.00%    100.00% |           0      0.00%    100.00% |           0      0.00%    100.00% |           0      0.00%    100.00% |           0      0.00%    100.00% |           0      0.00%    100.00% |           0      0.00%    100.00%
system.ruby.IFETCH.miss_latency_hist_seqr::total       631328                      
system.ruby.L1Cache_Controller.I.allocI_load |      269400     22.72%     22.72% |      366251     30.89%     53.61% |      284389     23.98%     77.59% |      265699     22.41%    100.00%
system.ruby.L1Cache_Controller.I.allocI_load::total      1185739                      
system.ruby.L1Cache_Controller.I.allocI_store |       42695     21.88%     21.88% |       53607     27.47%     49.35% |       65970     33.81%     83.15% |       32875     16.85%    100.00%
system.ruby.L1Cache_Controller.I.allocI_store::total       195147                      
system.ruby.L1Cache_Controller.I.deallocfwdfrom_in |      311086     22.59%     22.59% |      418834     30.42%     53.01% |      349345     25.37%     78.38% |      297657     21.62%    100.00%
system.ruby.L1Cache_Controller.I.deallocfwdfrom_in::total      1376922                      
system.ruby.L1Cache_Controller.I_store.Progress |         734     56.86%     56.86% |         322     24.94%     81.80% |          36      2.79%     84.59% |         199     15.41%    100.00%
system.ruby.L1Cache_Controller.I_store.Progress::total         1291                      
system.ruby.L1Cache_Controller.I_store.Stallfwdfrom_in |           5     55.56%     55.56% |           3     33.33%     88.89% |           1     11.11%    100.00% |           0      0.00%    100.00%
system.ruby.L1Cache_Controller.I_store.Stallfwdfrom_in::total            9                      
system.ruby.L1Cache_Controller.M.MloadMEvent |     4139968     26.85%     26.85% |     4642670     30.11%     56.96% |     3614141     23.44%     80.40% |     3021810     19.60%    100.00%
system.ruby.L1Cache_Controller.M.MloadMEvent::total     15418589                      
system.ruby.L1Cache_Controller.M.MstoreMEvent |     4187502     26.80%     26.80% |     4389754     28.09%     54.89% |     3823442     24.47%     79.35% |     3226400     20.65%    100.00%
system.ruby.L1Cache_Controller.M.MstoreMEvent::total     15627098                      
system.ruby.L1Cache_Controller.M.allocTBE |       95847     30.81%     30.81% |       79363     25.51%     56.33% |       80868     26.00%     82.32% |       54985     17.68%    100.00%
system.ruby.L1Cache_Controller.M.allocTBE::total       311063                      
system.ruby.L1Cache_Controller.M.externalstoreMrespfrom_in |       96037     30.80%     30.80% |       79663     25.55%     56.35% |       80992     25.97%     82.32% |       55126     17.68%    100.00%
system.ruby.L1Cache_Controller.M.externalstoreMrespfrom_in::total       311818                      
system.ruby.L1Cache_Controller.M_evict.Stallmandatory_in |         184     27.46%     27.46% |         175     26.12%     53.58% |         144     21.49%     75.07% |         167     24.93%    100.00%
system.ruby.L1Cache_Controller.M_evict.Stallmandatory_in::total          670                      
system.ruby.L1Cache_Controller.MloadMEvent |     4139968     26.85%     26.85% |     4642670     30.11%     56.96% |     3614141     23.44%     80.40% |     3021810     19.60%    100.00%
system.ruby.L1Cache_Controller.MloadMEvent::total     15418589                      
system.ruby.L1Cache_Controller.MstoreMEvent |     4187502     26.80%     26.80% |     4389754     28.09%     54.89% |     3823442     24.47%     79.35% |     3226400     20.65%    100.00%
system.ruby.L1Cache_Controller.MstoreMEvent::total     15627098                      
system.ruby.L1Cache_Controller.Progress  |      134961     62.91%     62.91% |       31678     14.77%     77.68% |       20610      9.61%     87.28% |       27283     12.72%    100.00%
system.ruby.L1Cache_Controller.Progress::total       214532                      
system.ruby.L1Cache_Controller.S.SloadSEvent |    22320840     20.03%     20.03% |    37632306     33.78%     53.81% |    29322554     26.32%     80.13% |    22135550     19.87%    100.00%
system.ruby.L1Cache_Controller.S.SloadSEvent::total    111411250                      
system.ruby.L1Cache_Controller.S.allocTBE |      299287     24.34%     24.34% |      370286     30.11%     54.44% |      289005     23.50%     77.94% |      271254     22.06%    100.00%
system.ruby.L1Cache_Controller.S.allocTBE::total      1229832                      
system.ruby.L1Cache_Controller.S.deallocTBE |       30706     64.91%     64.91% |        4759     10.06%     74.98% |        5506     11.64%     86.62% |        6331     13.38%    100.00%
system.ruby.L1Cache_Controller.S.deallocTBE::total        47302                      
system.ruby.L1Cache_Controller.S.externalloadSrespfrom_in |      269400     22.72%     22.72% |      366251     30.89%     53.61% |      284389     23.98%     77.59% |      265699     22.41%    100.00%
system.ruby.L1Cache_Controller.S.externalloadSrespfrom_in::total      1185739                      
system.ruby.L1Cache_Controller.S_evict.Stallmandatory_in |         155     26.68%     26.68% |         142     24.44%     51.12% |         126     21.69%     72.81% |         158     27.19%    100.00%
system.ruby.L1Cache_Controller.S_evict.Stallmandatory_in::total          581                      
system.ruby.L1Cache_Controller.S_evict_x_I.Progress |           0      0.00%      0.00% |           1    100.00%    100.00% |           0      0.00%    100.00% |           0      0.00%    100.00%
system.ruby.L1Cache_Controller.S_evict_x_I.Progress::total            1                      
system.ruby.L1Cache_Controller.S_evict_x_I.Stallmandatory_in |           0      0.00%      0.00% |           5    100.00%    100.00% |           0      0.00%    100.00% |           0      0.00%    100.00%
system.ruby.L1Cache_Controller.S_evict_x_I.Stallmandatory_in::total            5                      
system.ruby.L1Cache_Controller.S_store.Progress |      134227     62.95%     62.95% |       31355     14.70%     77.65% |       20574      9.65%     87.30% |       27084     12.70%    100.00%
system.ruby.L1Cache_Controller.S_store.Progress::total       213240                      
system.ruby.L1Cache_Controller.SloadSEvent |    22320840     20.03%     20.03% |    37632306     33.78%     53.81% |    29322554     26.32%     80.13% |    22135550     19.87%    100.00%
system.ruby.L1Cache_Controller.SloadSEvent::total    111411250                      
system.ruby.L1Cache_Controller.Stallfwdfrom_in |           5     55.56%     55.56% |           3     33.33%     88.89% |           1     11.11%    100.00% |           0      0.00%    100.00%
system.ruby.L1Cache_Controller.Stallfwdfrom_in::total            9                      
system.ruby.L1Cache_Controller.Stallmandatory_in |         339     26.99%     26.99% |         322     25.64%     52.63% |         270     21.50%     74.12% |         325     25.88%    100.00%
system.ruby.L1Cache_Controller.Stallmandatory_in::total         1256                      
system.ruby.L1Cache_Controller.allocI_load |      269400     22.72%     22.72% |      366251     30.89%     53.61% |      284389     23.98%     77.59% |      265699     22.41%    100.00%
system.ruby.L1Cache_Controller.allocI_load::total      1185739                      
system.ruby.L1Cache_Controller.allocI_store |       42695     21.88%     21.88% |       53607     27.47%     49.35% |       65970     33.81%     83.15% |       32875     16.85%    100.00%
system.ruby.L1Cache_Controller.allocI_store::total       195147                      
system.ruby.L1Cache_Controller.allocTBE  |      395134     25.64%     25.64% |      449649     29.18%     54.82% |      369873     24.00%     78.83% |      326239     21.17%    100.00%
system.ruby.L1Cache_Controller.allocTBE::total      1540895                      
system.ruby.L1Cache_Controller.deallocTBE |       30706     64.91%     64.91% |        4759     10.06%     74.98% |        5506     11.64%     86.62% |        6331     13.38%    100.00%
system.ruby.L1Cache_Controller.deallocTBE::total        47302                      
system.ruby.L1Cache_Controller.deallocfwdfrom_in |      311086     22.59%     22.59% |      418834     30.42%     53.01% |      349345     25.37%     78.38% |      297657     21.62%    100.00%
system.ruby.L1Cache_Controller.deallocfwdfrom_in::total      1376922                      
system.ruby.L1Cache_Controller.externalloadSrespfrom_in |      269400     22.72%     22.72% |      366251     30.89%     53.61% |      284389     23.98%     77.59% |      265699     22.41%    100.00%
system.ruby.L1Cache_Controller.externalloadSrespfrom_in::total      1185739                      
system.ruby.L1Cache_Controller.externalstoreMrespfrom_in |       96037     30.80%     30.80% |       79663     25.55%     56.35% |       80992     25.97%     82.32% |       55126     17.68%    100.00%
system.ruby.L1Cache_Controller.externalstoreMrespfrom_in::total       311818                      
system.ruby.LD.hit_latency_hist_seqr::bucket_size            1                      
system.ruby.LD.hit_latency_hist_seqr::max_bucket            9                      
system.ruby.LD.hit_latency_hist_seqr::samples     22871210                      
system.ruby.LD.hit_latency_hist_seqr     |    22871210    100.00%    100.00% |           0      0.00%    100.00% |           0      0.00%    100.00% |           0      0.00%    100.00% |           0      0.00%    100.00% |           0      0.00%    100.00% |           0      0.00%    100.00% |           0      0.00%    100.00% |           0      0.00%    100.00% |           0      0.00%    100.00%
system.ruby.LD.hit_latency_hist_seqr::total     22871210                      
system.ruby.LD.latency_hist_seqr::bucket_size            1                      
system.ruby.LD.latency_hist_seqr::max_bucket            9                      
system.ruby.LD.latency_hist_seqr::samples     23425621                      
system.ruby.LD.latency_hist_seqr         |    23425621    100.00%    100.00% |           0      0.00%    100.00% |           0      0.00%    100.00% |           0      0.00%    100.00% |           0      0.00%    100.00% |           0      0.00%    100.00% |           0      0.00%    100.00% |           0      0.00%    100.00% |           0      0.00%    100.00% |           0      0.00%    100.00%
system.ruby.LD.latency_hist_seqr::total      23425621                      
system.ruby.LD.miss_latency_hist_seqr::bucket_size            1                      
system.ruby.LD.miss_latency_hist_seqr::max_bucket            9                      
system.ruby.LD.miss_latency_hist_seqr::samples       554411                      
system.ruby.LD.miss_latency_hist_seqr    |      554411    100.00%    100.00% |           0      0.00%    100.00% |           0      0.00%    100.00% |           0      0.00%    100.00% |           0      0.00%    100.00% |           0      0.00%    100.00% |           0      0.00%    100.00% |           0      0.00%    100.00% |           0      0.00%    100.00% |           0      0.00%    100.00%
system.ruby.LD.miss_latency_hist_seqr::total       554411                      
system.ruby.Locked_RMW_Read.hit_latency_hist_seqr::bucket_size            1                      
system.ruby.Locked_RMW_Read.hit_latency_hist_seqr::max_bucket            9                      
system.ruby.Locked_RMW_Read.hit_latency_hist_seqr::samples       282597                      
system.ruby.Locked_RMW_Read.hit_latency_hist_seqr |      282597    100.00%    100.00% |           0      0.00%    100.00% |           0      0.00%    100.00% |           0      0.00%    100.00% |           0      0.00%    100.00% |           0      0.00%    100.00% |           0      0.00%    100.00% |           0      0.00%    100.00% |           0      0.00%    100.00% |           0      0.00%    100.00%
system.ruby.Locked_RMW_Read.hit_latency_hist_seqr::total       282597                      
system.ruby.Locked_RMW_Read.latency_hist_seqr::bucket_size            1                      
system.ruby.Locked_RMW_Read.latency_hist_seqr::max_bucket            9                      
system.ruby.Locked_RMW_Read.latency_hist_seqr::samples       325605                      
system.ruby.Locked_RMW_Read.latency_hist_seqr |      325605    100.00%    100.00% |           0      0.00%    100.00% |           0      0.00%    100.00% |           0      0.00%    100.00% |           0      0.00%    100.00% |           0      0.00%    100.00% |           0      0.00%    100.00% |           0      0.00%    100.00% |           0      0.00%    100.00% |           0      0.00%    100.00%
system.ruby.Locked_RMW_Read.latency_hist_seqr::total       325605                      
system.ruby.Locked_RMW_Read.miss_latency_hist_seqr::bucket_size            1                      
system.ruby.Locked_RMW_Read.miss_latency_hist_seqr::max_bucket            9                      
system.ruby.Locked_RMW_Read.miss_latency_hist_seqr::samples        43008                      
system.ruby.Locked_RMW_Read.miss_latency_hist_seqr |       43008    100.00%    100.00% |           0      0.00%    100.00% |           0      0.00%    100.00% |           0      0.00%    100.00% |           0      0.00%    100.00% |           0      0.00%    100.00% |           0      0.00%    100.00% |           0      0.00%    100.00% |           0      0.00%    100.00% |           0      0.00%    100.00%
system.ruby.Locked_RMW_Read.miss_latency_hist_seqr::total        43008                      
system.ruby.Locked_RMW_Write.hit_latency_hist_seqr::bucket_size            1                      
system.ruby.Locked_RMW_Write.hit_latency_hist_seqr::max_bucket            9                      
system.ruby.Locked_RMW_Write.hit_latency_hist_seqr::samples       325605                      
system.ruby.Locked_RMW_Write.hit_latency_hist_seqr |      325605    100.00%    100.00% |           0      0.00%    100.00% |           0      0.00%    100.00% |           0      0.00%    100.00% |           0      0.00%    100.00% |           0      0.00%    100.00% |           0      0.00%    100.00% |           0      0.00%    100.00% |           0      0.00%    100.00% |           0      0.00%    100.00%
system.ruby.Locked_RMW_Write.hit_latency_hist_seqr::total       325605                      
system.ruby.Locked_RMW_Write.latency_hist_seqr::bucket_size            1                      
system.ruby.Locked_RMW_Write.latency_hist_seqr::max_bucket            9                      
system.ruby.Locked_RMW_Write.latency_hist_seqr::samples       325605                      
system.ruby.Locked_RMW_Write.latency_hist_seqr |      325605    100.00%    100.00% |           0      0.00%    100.00% |           0      0.00%    100.00% |           0      0.00%    100.00% |           0      0.00%    100.00% |           0      0.00%    100.00% |           0      0.00%    100.00% |           0      0.00%    100.00% |           0      0.00%    100.00% |           0      0.00%    100.00%
system.ruby.Locked_RMW_Write.latency_hist_seqr::total       325605                      
system.ruby.RMW_Read.hit_latency_hist_seqr::bucket_size            1                      
system.ruby.RMW_Read.hit_latency_hist_seqr::max_bucket            9                      
system.ruby.RMW_Read.hit_latency_hist_seqr::samples       778463                      
system.ruby.RMW_Read.hit_latency_hist_seqr |      778463    100.00%    100.00% |           0      0.00%    100.00% |           0      0.00%    100.00% |           0      0.00%    100.00% |           0      0.00%    100.00% |           0      0.00%    100.00% |           0      0.00%    100.00% |           0      0.00%    100.00% |           0      0.00%    100.00% |           0      0.00%    100.00%
system.ruby.RMW_Read.hit_latency_hist_seqr::total       778463                      
system.ruby.RMW_Read.latency_hist_seqr::bucket_size            1                      
system.ruby.RMW_Read.latency_hist_seqr::max_bucket            9                      
system.ruby.RMW_Read.latency_hist_seqr::samples       800373                      
system.ruby.RMW_Read.latency_hist_seqr   |      800373    100.00%    100.00% |           0      0.00%    100.00% |           0      0.00%    100.00% |           0      0.00%    100.00% |           0      0.00%    100.00% |           0      0.00%    100.00% |           0      0.00%    100.00% |           0      0.00%    100.00% |           0      0.00%    100.00% |           0      0.00%    100.00%
system.ruby.RMW_Read.latency_hist_seqr::total       800373                      
system.ruby.RMW_Read.miss_latency_hist_seqr::bucket_size            1                      
system.ruby.RMW_Read.miss_latency_hist_seqr::max_bucket            9                      
system.ruby.RMW_Read.miss_latency_hist_seqr::samples        21910                      
system.ruby.RMW_Read.miss_latency_hist_seqr |       21910    100.00%    100.00% |           0      0.00%    100.00% |           0      0.00%    100.00% |           0      0.00%    100.00% |           0      0.00%    100.00% |           0      0.00%    100.00% |           0      0.00%    100.00% |           0      0.00%    100.00% |           0      0.00%    100.00% |           0      0.00%    100.00%
system.ruby.RMW_Read.miss_latency_hist_seqr::total        21910                      
system.ruby.ST.hit_latency_hist_seqr::bucket_size            1                      
system.ruby.ST.hit_latency_hist_seqr::max_bucket            9                      
system.ruby.ST.hit_latency_hist_seqr::samples     14240433                      
system.ruby.ST.hit_latency_hist_seqr     |    14240433    100.00%    100.00% |           0      0.00%    100.00% |           0      0.00%    100.00% |           0      0.00%    100.00% |           0      0.00%    100.00% |           0      0.00%    100.00% |           0      0.00%    100.00% |           0      0.00%    100.00% |           0      0.00%    100.00% |           0      0.00%    100.00%
system.ruby.ST.hit_latency_hist_seqr::total     14240433                      
system.ruby.ST.latency_hist_seqr::bucket_size            1                      
system.ruby.ST.latency_hist_seqr::max_bucket            9                      
system.ruby.ST.latency_hist_seqr::samples     14487333                      
system.ruby.ST.latency_hist_seqr         |    14487333    100.00%    100.00% |           0      0.00%    100.00% |           0      0.00%    100.00% |           0      0.00%    100.00% |           0      0.00%    100.00% |           0      0.00%    100.00% |           0      0.00%    100.00% |           0      0.00%    100.00% |           0      0.00%    100.00% |           0      0.00%    100.00%
system.ruby.ST.latency_hist_seqr::total      14487333                      
system.ruby.ST.miss_latency_hist_seqr::bucket_size            1                      
system.ruby.ST.miss_latency_hist_seqr::max_bucket            9                      
system.ruby.ST.miss_latency_hist_seqr::samples       246900                      
system.ruby.ST.miss_latency_hist_seqr    |      246900    100.00%    100.00% |           0      0.00%    100.00% |           0      0.00%    100.00% |           0      0.00%    100.00% |           0      0.00%    100.00% |           0      0.00%    100.00% |           0      0.00%    100.00% |           0      0.00%    100.00% |           0      0.00%    100.00% |           0      0.00%    100.00%
system.ruby.ST.miss_latency_hist_seqr::total       246900                      
system.ruby.dir_cntrl0.fwdFrom.avg_buf_msgs     0.000252                       # Average number of messages in buffer
system.ruby.dir_cntrl0.fwdFrom.avg_stall_time  2999.997620                       # Average number of cycles messages are stalled in this MB
system.ruby.dir_cntrl0.reqTo.avg_buf_msgs     0.000084                       # Average number of messages in buffer
system.ruby.dir_cntrl0.reqTo.avg_stall_time  3390.761111                       # Average number of cycles messages are stalled in this MB
system.ruby.dir_cntrl0.requestToMemory.avg_buf_msgs     0.000053                       # Average number of messages in buffer
system.ruby.dir_cntrl0.requestToMemory.avg_stall_time   499.999989                       # Average number of cycles messages are stalled in this MB
system.ruby.dir_cntrl0.respFrom.avg_buf_msgs     0.000268                       # Average number of messages in buffer
system.ruby.dir_cntrl0.respFrom.avg_stall_time  3000.318813                       # Average number of cycles messages are stalled in this MB
system.ruby.dir_cntrl0.respTo.avg_buf_msgs     0.000004                       # Average number of messages in buffer
system.ruby.dir_cntrl0.respTo.avg_stall_time  5468.838360                       # Average number of cycles messages are stalled in this MB
system.ruby.dir_cntrl0.responseFromMemory.avg_buf_msgs     0.000053                       # Average number of messages in buffer
system.ruby.dir_cntrl0.responseFromMemory.avg_stall_time   499.999981                       # Average number of cycles messages are stalled in this MB
system.ruby.dir_cntrl1.fwdFrom.avg_buf_msgs     0.000209                       # Average number of messages in buffer
system.ruby.dir_cntrl1.fwdFrom.avg_stall_time  2999.993699                       # Average number of cycles messages are stalled in this MB
system.ruby.dir_cntrl1.reqTo.avg_buf_msgs     0.000071                       # Average number of messages in buffer
system.ruby.dir_cntrl1.reqTo.avg_stall_time  4030.623980                       # Average number of cycles messages are stalled in this MB
system.ruby.dir_cntrl1.requestToMemory.avg_buf_msgs     0.000045                       # Average number of messages in buffer
system.ruby.dir_cntrl1.requestToMemory.avg_stall_time   499.999989                       # Average number of cycles messages are stalled in this MB
system.ruby.dir_cntrl1.respFrom.avg_buf_msgs     0.000227                       # Average number of messages in buffer
system.ruby.dir_cntrl1.respFrom.avg_stall_time  3000.373314                       # Average number of cycles messages are stalled in this MB
system.ruby.dir_cntrl1.respTo.avg_buf_msgs     0.000002                       # Average number of messages in buffer
system.ruby.dir_cntrl1.respTo.avg_stall_time  7676.078095                       # Average number of cycles messages are stalled in this MB
system.ruby.dir_cntrl1.responseFromMemory.avg_buf_msgs     0.000045                       # Average number of messages in buffer
system.ruby.dir_cntrl1.responseFromMemory.avg_stall_time   499.999981                       # Average number of cycles messages are stalled in this MB
system.ruby.dir_cntrl2.fwdFrom.avg_buf_msgs     0.000171                       # Average number of messages in buffer
system.ruby.dir_cntrl2.fwdFrom.avg_stall_time  2999.993844                       # Average number of cycles messages are stalled in this MB
system.ruby.dir_cntrl2.reqTo.avg_buf_msgs     0.000058                       # Average number of messages in buffer
system.ruby.dir_cntrl2.reqTo.avg_stall_time  4006.800094                       # Average number of cycles messages are stalled in this MB
system.ruby.dir_cntrl2.requestToMemory.avg_buf_msgs     0.000037                       # Average number of messages in buffer
system.ruby.dir_cntrl2.requestToMemory.avg_stall_time   500.000000                       # Average number of cycles messages are stalled in this MB
system.ruby.dir_cntrl2.respFrom.avg_buf_msgs     0.000195                       # Average number of messages in buffer
system.ruby.dir_cntrl2.respFrom.avg_stall_time  3000.758276                       # Average number of cycles messages are stalled in this MB
system.ruby.dir_cntrl2.respTo.avg_buf_msgs     0.000002                       # Average number of messages in buffer
system.ruby.dir_cntrl2.respTo.avg_stall_time  8291.109154                       # Average number of cycles messages are stalled in this MB
system.ruby.dir_cntrl2.responseFromMemory.avg_buf_msgs     0.000037                       # Average number of messages in buffer
system.ruby.dir_cntrl2.responseFromMemory.avg_stall_time   499.999991                       # Average number of cycles messages are stalled in this MB
system.ruby.dir_cntrl3.fwdFrom.avg_buf_msgs     0.000183                       # Average number of messages in buffer
system.ruby.dir_cntrl3.fwdFrom.avg_stall_time  2999.997925                       # Average number of cycles messages are stalled in this MB
system.ruby.dir_cntrl3.reqTo.avg_buf_msgs     0.000062                       # Average number of messages in buffer
system.ruby.dir_cntrl3.reqTo.avg_stall_time  4648.122065                       # Average number of cycles messages are stalled in this MB
system.ruby.dir_cntrl3.requestToMemory.avg_buf_msgs     0.000039                       # Average number of messages in buffer
system.ruby.dir_cntrl3.requestToMemory.avg_stall_time   500.000000                       # Average number of cycles messages are stalled in this MB
system.ruby.dir_cntrl3.respFrom.avg_buf_msgs     0.000205                       # Average number of messages in buffer
system.ruby.dir_cntrl3.respFrom.avg_stall_time  3000.811390                       # Average number of cycles messages are stalled in this MB
system.ruby.dir_cntrl3.respTo.avg_buf_msgs     0.000001                       # Average number of messages in buffer
system.ruby.dir_cntrl3.respTo.avg_stall_time  8727.220417                       # Average number of cycles messages are stalled in this MB
system.ruby.dir_cntrl3.responseFromMemory.avg_buf_msgs     0.000039                       # Average number of messages in buffer
system.ruby.dir_cntrl3.responseFromMemory.avg_stall_time   499.999991                       # Average number of cycles messages are stalled in this MB
system.ruby.dma_cntrl0.cache.demand_accesses            0                       # Number of cache demand accesses
system.ruby.dma_cntrl0.cache.demand_hits            0                       # Number of cache demand hits
system.ruby.dma_cntrl0.cache.demand_misses            0                       # Number of cache demand misses
system.ruby.dma_cntrl0.fully_busy_cycles         6845                       # cycles for which number of transistions == max transitions
system.ruby.dma_cntrl0.fwdFrom.avg_buf_msgs     0.000001                       # Average number of messages in buffer
system.ruby.dma_cntrl0.fwdFrom.avg_stall_time  9222.954315                       # Average number of cycles messages are stalled in this MB
system.ruby.dma_cntrl0.mandatoryQueue.avg_buf_msgs     0.000036                       # Average number of messages in buffer
system.ruby.dma_cntrl0.mandatoryQueue.avg_stall_time 44191.720706                       # Average number of cycles messages are stalled in this MB
system.ruby.dma_cntrl0.reqTo.avg_buf_msgs     0.000044                       # Average number of messages in buffer
system.ruby.dma_cntrl0.reqTo.avg_stall_time  1564.676315                       # Average number of cycles messages are stalled in this MB
system.ruby.dma_cntrl0.respFrom.avg_buf_msgs     0.000001                       # Average number of messages in buffer
system.ruby.dma_cntrl0.respFrom.avg_stall_time 144131.462098                       # Average number of cycles messages are stalled in this MB
system.ruby.dma_cntrl0.respTo.avg_buf_msgs     0.000000                       # Average number of messages in buffer
system.ruby.dma_cntrl0.respTo.avg_stall_time   561.574669                       # Average number of cycles messages are stalled in this MB
system.ruby.hit_latency_hist_seqr::bucket_size            1                      
system.ruby.hit_latency_hist_seqr::max_bucket            9                      
system.ruby.hit_latency_hist_seqr::samples    142456937                      
system.ruby.hit_latency_hist_seqr        |   142456937    100.00%    100.00% |           0      0.00%    100.00% |           0      0.00%    100.00% |           0      0.00%    100.00% |           0      0.00%    100.00% |           0      0.00%    100.00% |           0      0.00%    100.00% |           0      0.00%    100.00% |           0      0.00%    100.00% |           0      0.00%    100.00%
system.ruby.hit_latency_hist_seqr::total    142456937                      
system.ruby.io_controller.cache.demand_accesses            0                       # Number of cache demand accesses
system.ruby.io_controller.cache.demand_hits            0                       # Number of cache demand hits
system.ruby.io_controller.cache.demand_misses            0                       # Number of cache demand misses
system.ruby.l1_cntrl0.cache.demand_accesses            0                       # Number of cache demand accesses
system.ruby.l1_cntrl0.cache.demand_hits             0                       # Number of cache demand hits
system.ruby.l1_cntrl0.cache.demand_misses            0                       # Number of cache demand misses
system.ruby.l1_cntrl0.fully_busy_cycles             2                       # cycles for which number of transistions == max transitions
system.ruby.l1_cntrl0.fwdFrom.avg_buf_msgs     0.000034                       # Average number of messages in buffer
system.ruby.l1_cntrl0.fwdFrom.avg_stall_time  5807.285840                       # Average number of cycles messages are stalled in this MB
system.ruby.l1_cntrl0.mandatoryQueue.avg_buf_msgs     0.003824                       # Average number of messages in buffer
system.ruby.l1_cntrl0.mandatoryQueue.avg_stall_time   537.539269                       # Average number of cycles messages are stalled in this MB
system.ruby.l1_cntrl0.reqTo.avg_buf_msgs     0.000066                       # Average number of messages in buffer
system.ruby.l1_cntrl0.reqTo.avg_stall_time   499.999865                       # Average number of cycles messages are stalled in this MB
system.ruby.l1_cntrl0.respFrom.avg_buf_msgs     0.000044                       # Average number of messages in buffer
system.ruby.l1_cntrl0.respFrom.avg_stall_time 16497.401901                       # Average number of cycles messages are stalled in this MB
system.ruby.l1_cntrl0.respTo.avg_buf_msgs     0.000013                       # Average number of messages in buffer
system.ruby.l1_cntrl0.respTo.avg_stall_time   666.092021                       # Average number of cycles messages are stalled in this MB
system.ruby.l1_cntrl1.cache.demand_accesses            0                       # Number of cache demand accesses
system.ruby.l1_cntrl1.cache.demand_hits             0                       # Number of cache demand hits
system.ruby.l1_cntrl1.cache.demand_misses            0                       # Number of cache demand misses
system.ruby.l1_cntrl1.fully_busy_cycles             1                       # cycles for which number of transistions == max transitions
system.ruby.l1_cntrl1.fwdFrom.avg_buf_msgs     0.000042                       # Average number of messages in buffer
system.ruby.l1_cntrl1.fwdFrom.avg_stall_time  7557.683705                       # Average number of cycles messages are stalled in this MB
system.ruby.l1_cntrl1.mandatoryQueue.avg_buf_msgs     0.005618                       # Average number of messages in buffer
system.ruby.l1_cntrl1.mandatoryQueue.avg_stall_time   547.294452                       # Average number of cycles messages are stalled in this MB
system.ruby.l1_cntrl1.reqTo.avg_buf_msgs     0.000082                       # Average number of messages in buffer
system.ruby.l1_cntrl1.reqTo.avg_stall_time   499.991936                       # Average number of cycles messages are stalled in this MB
system.ruby.l1_cntrl1.respFrom.avg_buf_msgs     0.000045                       # Average number of messages in buffer
system.ruby.l1_cntrl1.respFrom.avg_stall_time 17484.348541                       # Average number of cycles messages are stalled in this MB
system.ruby.l1_cntrl1.respTo.avg_buf_msgs     0.000005                       # Average number of messages in buffer
system.ruby.l1_cntrl1.respTo.avg_stall_time   578.766121                       # Average number of cycles messages are stalled in this MB
system.ruby.l1_cntrl2.cache.demand_accesses            0                       # Number of cache demand accesses
system.ruby.l1_cntrl2.cache.demand_hits             0                       # Number of cache demand hits
system.ruby.l1_cntrl2.cache.demand_misses            0                       # Number of cache demand misses
system.ruby.l1_cntrl2.fully_busy_cycles             1                       # cycles for which number of transistions == max transitions
system.ruby.l1_cntrl2.fwdFrom.avg_buf_msgs     0.000035                       # Average number of messages in buffer
system.ruby.l1_cntrl2.fwdFrom.avg_stall_time  6561.439211                       # Average number of cycles messages are stalled in this MB
system.ruby.l1_cntrl2.mandatoryQueue.avg_buf_msgs     0.004502                       # Average number of messages in buffer
system.ruby.l1_cntrl2.mandatoryQueue.avg_stall_time   545.428653                       # Average number of cycles messages are stalled in this MB
system.ruby.l1_cntrl2.reqTo.avg_buf_msgs     0.000068                       # Average number of messages in buffer
system.ruby.l1_cntrl2.reqTo.avg_stall_time   500.000277                       # Average number of cycles messages are stalled in this MB
system.ruby.l1_cntrl2.respFrom.avg_buf_msgs     0.000037                       # Average number of messages in buffer
system.ruby.l1_cntrl2.respFrom.avg_stall_time 15512.867126                       # Average number of cycles messages are stalled in this MB
system.ruby.l1_cntrl2.respTo.avg_buf_msgs     0.000005                       # Average number of messages in buffer
system.ruby.l1_cntrl2.respTo.avg_stall_time   550.969668                       # Average number of cycles messages are stalled in this MB
system.ruby.l1_cntrl3.cache.demand_accesses            0                       # Number of cache demand accesses
system.ruby.l1_cntrl3.cache.demand_hits             0                       # Number of cache demand hits
system.ruby.l1_cntrl3.cache.demand_misses            0                       # Number of cache demand misses
system.ruby.l1_cntrl3.fully_busy_cycles             1                       # cycles for which number of transistions == max transitions
system.ruby.l1_cntrl3.fwdFrom.avg_buf_msgs     0.000030                       # Average number of messages in buffer
system.ruby.l1_cntrl3.fwdFrom.avg_stall_time  7461.099794                       # Average number of cycles messages are stalled in this MB
system.ruby.l1_cntrl3.mandatoryQueue.avg_buf_msgs     0.003502                       # Average number of messages in buffer
system.ruby.l1_cntrl3.mandatoryQueue.avg_stall_time   532.103984                       # Average number of cycles messages are stalled in this MB
system.ruby.l1_cntrl3.reqTo.avg_buf_msgs     0.000058                       # Average number of messages in buffer
system.ruby.l1_cntrl3.reqTo.avg_stall_time   500.000019                       # Average number of cycles messages are stalled in this MB
system.ruby.l1_cntrl3.respFrom.avg_buf_msgs     0.000032                       # Average number of messages in buffer
system.ruby.l1_cntrl3.respFrom.avg_stall_time 16500.306081                       # Average number of cycles messages are stalled in this MB
system.ruby.l1_cntrl3.respTo.avg_buf_msgs     0.000006                       # Average number of messages in buffer
system.ruby.l1_cntrl3.respTo.avg_stall_time   570.064038                       # Average number of cycles messages are stalled in this MB
system.ruby.latency_hist_seqr::bucket_size            1                      
system.ruby.latency_hist_seqr::max_bucket            9                      
system.ruby.latency_hist_seqr::samples      143954494                      
system.ruby.latency_hist_seqr            |   143954494    100.00%    100.00% |           0      0.00%    100.00% |           0      0.00%    100.00% |           0      0.00%    100.00% |           0      0.00%    100.00% |           0      0.00%    100.00% |           0      0.00%    100.00% |           0      0.00%    100.00% |           0      0.00%    100.00% |           0      0.00%    100.00%
system.ruby.latency_hist_seqr::total        143954494                      
system.ruby.miss_latency_hist_seqr::bucket_size            1                      
system.ruby.miss_latency_hist_seqr::max_bucket            9                      
system.ruby.miss_latency_hist_seqr::samples      1497557                      
system.ruby.miss_latency_hist_seqr       |     1497557    100.00%    100.00% |           0      0.00%    100.00% |           0      0.00%    100.00% |           0      0.00%    100.00% |           0      0.00%    100.00% |           0      0.00%    100.00% |           0      0.00%    100.00% |           0      0.00%    100.00% |           0      0.00%    100.00% |           0      0.00%    100.00%
system.ruby.miss_latency_hist_seqr::total      1497557                      
system.ruby.network.average_flit_latency    16.575691                      
system.ruby.network.average_flit_network_latency    12.042083                      
system.ruby.network.average_flit_queueing_latency     4.533609                      
system.ruby.network.average_flit_vnet_latency |   15.063301                       |    5.102671                       |    8.398908                      
system.ruby.network.average_flit_vqueue_latency |    5.838902                       |    6.000001                       |    1.292401                      
system.ruby.network.average_hops             1.008160                      
system.ruby.network.average_packet_latency    14.809861                      
system.ruby.network.average_packet_network_latency    11.232139                      
system.ruby.network.average_packet_queueing_latency     3.577722                      
system.ruby.network.average_packet_vnet_latency |   23.566160                       |    5.102671                       |    6.870217                      
system.ruby.network.average_packet_vqueue_latency |    5.512802                       |    6.000001                       |    1.155490                      
system.ruby.network.avg_link_utilization     0.003915                      
system.ruby.network.avg_vc_load          |    0.001738     44.40%     44.40% |    0.000222      5.67%     50.07% |    0.000200      5.11%     55.19% |    0.000197      5.04%     60.23% |    0.000316      8.06%     68.29% |    0.000037      0.95%     69.24% |    0.000035      0.90%     70.15% |    0.000035      0.90%     71.05% |    0.000846     21.60%     92.65% |    0.000098      2.51%     95.16% |    0.000095      2.42%     97.58% |    0.000095      2.42%    100.00%
system.ruby.network.avg_vc_load::total       0.003915                      
system.ruby.network.ext_in_link_utilization     13155425                      
system.ruby.network.ext_out_link_utilization     13155425                      
system.ruby.network.flit_network_latency |   118978042                       |     7293452                       |    32147223                      
system.ruby.network.flit_queueing_latency |    46118781                       |     8576041                       |     4946725                      
system.ruby.network.flits_injected       |     7898537     60.04%     60.04% |     1429340     10.87%     70.91% |     3827548     29.09%    100.00%
system.ruby.network.flits_injected::total     13155425                      
system.ruby.network.flits_received       |     7898537     60.04%     60.04% |     1429340     10.87%     70.91% |     3827548     29.09%    100.00%
system.ruby.network.flits_received::total     13155425                      
system.ruby.network.int_link_utilization     13262767                      
system.ruby.network.packet_network_latency |    39934579                       |     7293452                       |    19120720                      
system.ruby.network.packet_queueing_latency |     9341845                       |     8576041                       |     3215881                      
system.ruby.network.packets_injected     |     1694573     28.69%     28.69% |     1429340     24.20%     52.88% |     2783132     47.12%    100.00%
system.ruby.network.packets_injected::total      5907045                      
system.ruby.network.packets_received     |     1694573     28.69%     28.69% |     1429340     24.20%     52.88% |     2783132     47.12%    100.00%
system.ruby.network.packets_received::total      5907045                      
system.ruby.network.routers0.buffer_reads      7225059                      
system.ruby.network.routers0.buffer_writes      7225059                      
system.ruby.network.routers0.crossbar_activity      7225059                      
system.ruby.network.routers0.sw_input_arbiter_activity      7248002                      
system.ruby.network.routers0.sw_output_arbiter_activity      7225059                      
system.ruby.network.routers1.buffer_reads      7192011                      
system.ruby.network.routers1.buffer_writes      7192011                      
system.ruby.network.routers1.crossbar_activity      7192011                      
system.ruby.network.routers1.sw_input_arbiter_activity      7196663                      
system.ruby.network.routers1.sw_output_arbiter_activity      7192011                      
system.ruby.network.routers2.buffer_reads      6025244                      
system.ruby.network.routers2.buffer_writes      6025244                      
system.ruby.network.routers2.crossbar_activity      6025244                      
system.ruby.network.routers2.sw_input_arbiter_activity      6032620                      
system.ruby.network.routers2.sw_output_arbiter_activity      6025244                      
system.ruby.network.routers3.buffer_reads      5975878                      
system.ruby.network.routers3.buffer_writes      5975878                      
system.ruby.network.routers3.crossbar_activity      5975878                      
system.ruby.network.routers3.sw_input_arbiter_activity      5979363                      
system.ruby.network.routers3.sw_output_arbiter_activity      5975878                      
system.ruby.outstanding_req_hist_seqr::bucket_size            1                      
system.ruby.outstanding_req_hist_seqr::max_bucket            9                      
system.ruby.outstanding_req_hist_seqr::samples    143954494                      
system.ruby.outstanding_req_hist_seqr::mean     1.000457                      
system.ruby.outstanding_req_hist_seqr::gmean     1.000317                      
system.ruby.outstanding_req_hist_seqr::stdev     0.021363                      
system.ruby.outstanding_req_hist_seqr    |           0      0.00%      0.00% |   143888769     99.95%     99.95% |       65725      0.05%    100.00% |           0      0.00%    100.00% |           0      0.00%    100.00% |           0      0.00%    100.00% |           0      0.00%    100.00% |           0      0.00%    100.00% |           0      0.00%    100.00% |           0      0.00%    100.00%
system.ruby.outstanding_req_hist_seqr::total    143954494                      
system.switch_cpus0.Branches                  4583670                       # Number of branches fetched
system.switch_cpus0.committedInsts           15810344                       # Number of instructions committed
system.switch_cpus0.committedOps             39311859                       # Number of ops (including micro ops) committed
system.switch_cpus0.dtb.rdAccesses            5889585                       # TLB accesses on read requests
system.switch_cpus0.dtb.rdMisses                18169                       # TLB misses on read requests
system.switch_cpus0.dtb.wrAccesses            3960486                       # TLB accesses on write requests
system.switch_cpus0.dtb.wrMisses                 2791                       # TLB misses on write requests
system.switch_cpus0.idle_fraction            0.989615                       # Percentage of idle cycles
system.switch_cpus0.itb.rdAccesses                  0                       # TLB accesses on read requests
system.switch_cpus0.itb.rdMisses                    0                       # TLB misses on read requests
system.switch_cpus0.itb.wrAccesses           21097882                       # TLB accesses on write requests
system.switch_cpus0.itb.wrMisses                 4675                       # TLB misses on write requests
system.switch_cpus0.kern.inst.arm                   0                       # number of arm instructions executed
system.switch_cpus0.kern.inst.quiesce               0                       # number of quiesce instructions executed
system.switch_cpus0.not_idle_fraction        0.010385                       # Percentage of non-idle cycles
system.switch_cpus0.numCycles             10106346507                       # number of cpu cycles simulated
system.switch_cpus0.numWorkItemsCompleted            0                       # number of work items this cpu completed
system.switch_cpus0.numWorkItemsStarted             0                       # number of work items this cpu started
system.switch_cpus0.num_busy_cycles      104951002.479576                       # Number of busy cycles
system.switch_cpus0.num_cc_register_reads     22087283                       # number of times the CC registers were read
system.switch_cpus0.num_cc_register_writes     10036372                       # number of times the CC registers were written
system.switch_cpus0.num_conditional_control_insts      2744337                       # number of instructions that are conditional controls
system.switch_cpus0.num_fp_alu_accesses         48693                       # Number of float alu accesses
system.switch_cpus0.num_fp_insts                48693                       # number of float instructions
system.switch_cpus0.num_fp_register_reads        71121                       # number of times the floating registers were read
system.switch_cpus0.num_fp_register_writes        37950                       # number of times the floating registers were written
system.switch_cpus0.num_func_calls            1510451                       # number of times a function call or return occured
system.switch_cpus0.num_idle_cycles      10001395504.520424                       # Number of idle cycles
system.switch_cpus0.num_int_alu_accesses     37973998                       # Number of integer alu accesses
system.switch_cpus0.num_int_insts            37973998                       # number of integer instructions
system.switch_cpus0.num_int_register_reads     78271524                       # number of times the integer registers were read
system.switch_cpus0.num_int_register_writes     30625477                       # number of times the integer registers were written
system.switch_cpus0.num_load_insts            5866005                       # Number of load instructions
system.switch_cpus0.num_mem_refs              9823717                       # number of memory refs
system.switch_cpus0.num_store_insts           3957712                       # Number of store instructions
system.switch_cpus0.num_vec_alu_accesses            0                       # Number of vector alu accesses
system.switch_cpus0.num_vec_insts                   0                       # number of vector instructions
system.switch_cpus0.num_vec_register_reads            0                       # number of times the vector registers were read
system.switch_cpus0.num_vec_register_writes            0                       # number of times the vector registers were written
system.switch_cpus0.op_class::No_OpClass      1104524      2.81%      2.81% # Class of executed instruction
system.switch_cpus0.op_class::IntAlu         28228026     71.80%     74.61% # Class of executed instruction
system.switch_cpus0.op_class::IntMult           62716      0.16%     74.77% # Class of executed instruction
system.switch_cpus0.op_class::IntDiv            63297      0.16%     74.93% # Class of executed instruction
system.switch_cpus0.op_class::FloatAdd            734      0.00%     74.93% # Class of executed instruction
system.switch_cpus0.op_class::FloatCmp              0      0.00%     74.93% # Class of executed instruction
system.switch_cpus0.op_class::FloatCvt            432      0.00%     74.94% # Class of executed instruction
system.switch_cpus0.op_class::FloatMult             0      0.00%     74.94% # Class of executed instruction
system.switch_cpus0.op_class::FloatMultAcc            0      0.00%     74.94% # Class of executed instruction
system.switch_cpus0.op_class::FloatDiv              0      0.00%     74.94% # Class of executed instruction
system.switch_cpus0.op_class::FloatMisc             0      0.00%     74.94% # Class of executed instruction
system.switch_cpus0.op_class::FloatSqrt             0      0.00%     74.94% # Class of executed instruction
system.switch_cpus0.op_class::SimdAdd             710      0.00%     74.94% # Class of executed instruction
system.switch_cpus0.op_class::SimdAddAcc            0      0.00%     74.94% # Class of executed instruction
system.switch_cpus0.op_class::SimdAlu            8909      0.02%     74.96% # Class of executed instruction
system.switch_cpus0.op_class::SimdCmp            1334      0.00%     74.96% # Class of executed instruction
system.switch_cpus0.op_class::SimdCvt            8278      0.02%     74.98% # Class of executed instruction
system.switch_cpus0.op_class::SimdMisc          10525      0.03%     75.01% # Class of executed instruction
system.switch_cpus0.op_class::SimdMult              0      0.00%     75.01% # Class of executed instruction
system.switch_cpus0.op_class::SimdMultAcc            0      0.00%     75.01% # Class of executed instruction
system.switch_cpus0.op_class::SimdShift            23      0.00%     75.01% # Class of executed instruction
system.switch_cpus0.op_class::SimdShiftAcc            0      0.00%     75.01% # Class of executed instruction
system.switch_cpus0.op_class::SimdDiv               0      0.00%     75.01% # Class of executed instruction
system.switch_cpus0.op_class::SimdSqrt              0      0.00%     75.01% # Class of executed instruction
system.switch_cpus0.op_class::SimdFloatAdd            0      0.00%     75.01% # Class of executed instruction
system.switch_cpus0.op_class::SimdFloatAlu            0      0.00%     75.01% # Class of executed instruction
system.switch_cpus0.op_class::SimdFloatCmp            0      0.00%     75.01% # Class of executed instruction
system.switch_cpus0.op_class::SimdFloatCvt            0      0.00%     75.01% # Class of executed instruction
system.switch_cpus0.op_class::SimdFloatDiv            0      0.00%     75.01% # Class of executed instruction
system.switch_cpus0.op_class::SimdFloatMisc            0      0.00%     75.01% # Class of executed instruction
system.switch_cpus0.op_class::SimdFloatMult            0      0.00%     75.01% # Class of executed instruction
system.switch_cpus0.op_class::SimdFloatMultAcc            0      0.00%     75.01% # Class of executed instruction
system.switch_cpus0.op_class::SimdFloatSqrt            0      0.00%     75.01% # Class of executed instruction
system.switch_cpus0.op_class::SimdReduceAdd            0      0.00%     75.01% # Class of executed instruction
system.switch_cpus0.op_class::SimdReduceAlu            0      0.00%     75.01% # Class of executed instruction
system.switch_cpus0.op_class::SimdReduceCmp            0      0.00%     75.01% # Class of executed instruction
system.switch_cpus0.op_class::SimdFloatReduceAdd            0      0.00%     75.01% # Class of executed instruction
system.switch_cpus0.op_class::SimdFloatReduceCmp            0      0.00%     75.01% # Class of executed instruction
system.switch_cpus0.op_class::SimdAes               0      0.00%     75.01% # Class of executed instruction
system.switch_cpus0.op_class::SimdAesMix            0      0.00%     75.01% # Class of executed instruction
system.switch_cpus0.op_class::SimdSha1Hash            0      0.00%     75.01% # Class of executed instruction
system.switch_cpus0.op_class::SimdSha1Hash2            0      0.00%     75.01% # Class of executed instruction
system.switch_cpus0.op_class::SimdSha256Hash            0      0.00%     75.01% # Class of executed instruction
system.switch_cpus0.op_class::SimdSha256Hash2            0      0.00%     75.01% # Class of executed instruction
system.switch_cpus0.op_class::SimdShaSigma2            0      0.00%     75.01% # Class of executed instruction
system.switch_cpus0.op_class::SimdShaSigma3            0      0.00%     75.01% # Class of executed instruction
system.switch_cpus0.op_class::SimdPredAlu            0      0.00%     75.01% # Class of executed instruction
system.switch_cpus0.op_class::MemRead         5854119     14.89%     89.90% # Class of executed instruction
system.switch_cpus0.op_class::MemWrite        3953698     10.06%     99.96% # Class of executed instruction
system.switch_cpus0.op_class::FloatMemRead        11886      0.03%     99.99% # Class of executed instruction
system.switch_cpus0.op_class::FloatMemWrite         4014      0.01%    100.00% # Class of executed instruction
system.switch_cpus0.op_class::IprAccess             0      0.00%    100.00% # Class of executed instruction
system.switch_cpus0.op_class::InstPrefetch            0      0.00%    100.00% # Class of executed instruction
system.switch_cpus0.op_class::total          39313225                       # Class of executed instruction
system.switch_cpus1.Branches                  4753173                       # Number of branches fetched
system.switch_cpus1.committedInsts           26326468                       # Number of instructions committed
system.switch_cpus1.committedOps             50823752                       # Number of ops (including micro ops) committed
system.switch_cpus1.dtb.rdAccesses            7522664                       # TLB accesses on read requests
system.switch_cpus1.dtb.rdMisses                16427                       # TLB misses on read requests
system.switch_cpus1.dtb.wrAccesses            4196791                       # TLB accesses on write requests
system.switch_cpus1.dtb.wrMisses                 3124                       # TLB misses on write requests
system.switch_cpus1.idle_fraction            0.985415                       # Percentage of idle cycles
system.switch_cpus1.itb.rdAccesses                  0                       # TLB accesses on read requests
system.switch_cpus1.itb.rdMisses                    0                       # TLB misses on read requests
system.switch_cpus1.itb.wrAccesses           35342601                       # TLB accesses on write requests
system.switch_cpus1.itb.wrMisses                 4836                       # TLB misses on write requests
[...]
system.mem_ctrls1.llc.tags.age_task_id_blocks_1024::1           21                       # Occupied blocks per task id
system.mem_ctrls1.llc.tags.age_task_id_blocks_1024::2          240                       # Occupied blocks per task id
system.mem_ctrls1.llc.tags.age_task_id_blocks_1024::3          757                       # Occupied blocks per task id
system.mem_ctrls1.llc.tags.age_task_id_blocks_1024::4        37161                       # Occupied blocks per task id
system.mem_ctrls1.llc.tags.occ_task_id_percent::1024     0.145664                       # Percentage of cache occupancy per task id
system.mem_ctrls1.llc.tags.tag_accesses       7360809                       # Number of tag accesses
system.mem_ctrls1.llc.tags.data_accesses       457664                       # Number of data accesses
system.mem_ctrls1.llc.tags.power_state.pwrStateResidencyTicks::UNDEFINED 108811436837001                       # Cumulative time (in ticks) in various power states
system.mem_ctrls1.rank1.actEnergy            38877300                       # Energy for activate commands per rank (pJ)
system.mem_ctrls1.rank1.preEnergy            20656185                       # Energy for precharge commands per rank (pJ)
system.mem_ctrls1.rank1.readEnergy          130376400                       # Energy for read commands per rank (pJ)
system.mem_ctrls1.rank1.writeEnergy                 0                       # Energy for write commands per rank (pJ)
system.mem_ctrls1.rank1.refreshEnergy    398963438640.000061                       # Energy for refresh commands per rank (pJ)
system.mem_ctrls1.rank1.actBackEnergy     81201343860                       # Energy for active background per rank (pJ)
system.mem_ctrls1.rank1.preBackEnergy    1872382723680                       # Energy for precharge background per rank (pJ)
system.mem_ctrls1.rank1.actPowerDownEnergy            0                       # Energy for active power-down per rank (pJ)
system.mem_ctrls1.rank1.prePowerDownEnergy            0                       # Energy for precharge power-down per rank (pJ)
system.mem_ctrls1.rank1.selfRefreshEnergy            0                       # Energy for self refresh per rank (pJ)
system.mem_ctrls1.rank1.totalEnergy      2352737416065                       # Total energy per rank (pJ)
system.mem_ctrls1.rank1.averagePower       465.513409                       # Core power per rank (mW)
system.mem_ctrls1.rank1.totalIdleTime               0                       # Total Idle time Per DRAM Rank
system.mem_ctrls1.rank1.memoryStateTime::IDLE 4867022233500                       # Time in different power states
system.mem_ctrls1.rank1.memoryStateTime::REF 168766260000                       # Time in different power states
system.mem_ctrls1.rank1.memoryStateTime::SREF            0                       # Time in different power states
system.mem_ctrls1.rank1.memoryStateTime::PRE_PDN            0                       # Time in different power states
system.mem_ctrls1.rank1.memoryStateTime::ACT  18281636501                       # Time in different power states
system.mem_ctrls1.rank1.memoryStateTime::ACT_PDN            0                       # Time in different power states
system.mem_ctrls1.rank0.actEnergy            42825720                       # Energy for activate commands per rank (pJ)
system.mem_ctrls1.rank0.preEnergy            22758615                       # Energy for precharge commands per rank (pJ)
system.mem_ctrls1.rank0.readEnergy          142264500                       # Energy for read commands per rank (pJ)
system.mem_ctrls1.rank0.writeEnergy                 0                       # Energy for write commands per rank (pJ)
system.mem_ctrls1.rank0.refreshEnergy    398963438640.000061                       # Energy for refresh commands per rank (pJ)
system.mem_ctrls1.rank0.actBackEnergy     81922343700                       # Energy for active background per rank (pJ)
system.mem_ctrls1.rank0.preBackEnergy    1871775647040                       # Energy for precharge background per rank (pJ)
system.mem_ctrls1.rank0.actPowerDownEnergy            0                       # Energy for active power-down per rank (pJ)
system.mem_ctrls1.rank0.prePowerDownEnergy            0                       # Energy for precharge power-down per rank (pJ)
system.mem_ctrls1.rank0.selfRefreshEnergy            0                       # Energy for self refresh per rank (pJ)
system.mem_ctrls1.rank0.totalEnergy      2352869278215                       # Total energy per rank (pJ)
system.mem_ctrls1.rank0.averagePower       465.539499                       # Core power per rank (mW)
system.mem_ctrls1.rank0.totalIdleTime               0                       # Total Idle time Per DRAM Rank
system.mem_ctrls1.rank0.memoryStateTime::IDLE 4865438515000                       # Time in different power states
system.mem_ctrls1.rank0.memoryStateTime::REF 168766260000                       # Time in different power states
system.mem_ctrls1.rank0.memoryStateTime::SREF            0                       # Time in different power states
system.mem_ctrls1.rank0.memoryStateTime::PRE_PDN            0                       # Time in different power states
system.mem_ctrls1.rank0.memoryStateTime::ACT  19865355001                       # Time in different power states
system.mem_ctrls1.rank0.memoryStateTime::ACT_PDN            0                       # Time in different power states
system.mem_ctrls1.power_state.pwrStateResidencyTicks::UNDEFINED 108811436837001                       # Cumulative time (in ticks) in various power states
system.cpu_voltage_domain.voltage                   1                       # Voltage in Volts
system.iobus.trans_dist::ReadReq                 2238                       # Transaction distribution
system.iobus.trans_dist::ReadResp                2238                       # Transaction distribution
system.iobus.trans_dist::WriteReq               22197                       # Transaction distribution
system.iobus.trans_dist::WriteResp              22197                       # Transaction distribution
system.iobus.pkt_count_system.pc.south_bridge.io_apic.int_master::system.ruby.l1_cntrl1.sequencer.pio-slave-port         1424                       # Packet count per connected master and slave (bytes)
system.iobus.pkt_count_system.pc.south_bridge.io_apic.int_master::total         1424                       # Packet count per connected master and slave (bytes)
system.iobus.pkt_count_system.ruby.l1_cntrl0.sequencer.mem-master-port::system.pc.south_bridge.ide.pio           68                       # Packet count per connected master and slave (bytes)
system.iobus.pkt_count_system.ruby.l1_cntrl0.sequencer.mem-master-port::system.pc.com_1.pio           18                       # Packet count per connected master and slave (bytes)
system.iobus.pkt_count_system.ruby.l1_cntrl0.sequencer.mem-master-port::system.ruby.l1_cntrl0.sequencer.pio-slave-port        10308                       # Packet count per connected master and slave (bytes)
system.iobus.pkt_count_system.ruby.l1_cntrl0.sequencer.mem-master-port::system.ruby.l1_cntrl1.sequencer.pio-slave-port            8                       # Packet count per connected master and slave (bytes)
system.iobus.pkt_count_system.ruby.l1_cntrl0.sequencer.mem-master-port::system.ruby.l1_cntrl2.sequencer.pio-slave-port           16                       # Packet count per connected master and slave (bytes)
system.iobus.pkt_count_system.ruby.l1_cntrl0.sequencer.mem-master-port::system.ruby.l1_cntrl3.sequencer.pio-slave-port            8                       # Packet count per connected master and slave (bytes)
system.iobus.pkt_count_system.ruby.l1_cntrl0.sequencer.mem-master-port::total        10426                       # Packet count per connected master and slave (bytes)
system.iobus.pkt_count_system.ruby.l1_cntrl1.sequencer.mem-master-port::system.pc.south_bridge.ide.pio          312                       # Packet count per connected master and slave (bytes)
system.iobus.pkt_count_system.ruby.l1_cntrl1.sequencer.mem-master-port::system.pc.com_1.pio         5602                       # Packet count per connected master and slave (bytes)
system.iobus.pkt_count_system.ruby.l1_cntrl1.sequencer.mem-master-port::system.ruby.l1_cntrl0.sequencer.pio-slave-port           22                       # Packet count per connected master and slave (bytes)
system.iobus.pkt_count_system.ruby.l1_cntrl1.sequencer.mem-master-port::system.ruby.l1_cntrl1.sequencer.pio-slave-port        10354                       # Packet count per connected master and slave (bytes)
system.iobus.pkt_count_system.ruby.l1_cntrl1.sequencer.mem-master-port::system.ruby.l1_cntrl2.sequencer.pio-slave-port            2                       # Packet count per connected master and slave (bytes)
system.iobus.pkt_count_system.ruby.l1_cntrl1.sequencer.mem-master-port::system.ruby.l1_cntrl3.sequencer.pio-slave-port           12                       # Packet count per connected master and slave (bytes)
system.iobus.pkt_count_system.ruby.l1_cntrl1.sequencer.mem-master-port::total        16304                       # Packet count per connected master and slave (bytes)
system.iobus.pkt_count_system.ruby.l1_cntrl2.sequencer.mem-master-port::system.pc.south_bridge.ide.pio           34                       # Packet count per connected master and slave (bytes)
system.iobus.pkt_count_system.ruby.l1_cntrl2.sequencer.mem-master-port::system.ruby.l1_cntrl0.sequencer.pio-slave-port            8                       # Packet count per connected master and slave (bytes)
system.iobus.pkt_count_system.ruby.l1_cntrl2.sequencer.mem-master-port::system.ruby.l1_cntrl1.sequencer.pio-slave-port            4                       # Packet count per connected master and slave (bytes)
system.iobus.pkt_count_system.ruby.l1_cntrl2.sequencer.mem-master-port::system.ruby.l1_cntrl2.sequencer.pio-slave-port        10258                       # Packet count per connected master and slave (bytes)
system.iobus.pkt_count_system.ruby.l1_cntrl2.sequencer.mem-master-port::system.ruby.l1_cntrl3.sequencer.pio-slave-port            4                       # Packet count per connected master and slave (bytes)
system.iobus.pkt_count_system.ruby.l1_cntrl2.sequencer.mem-master-port::total        10308                       # Packet count per connected master and slave (bytes)
system.iobus.pkt_count_system.ruby.l1_cntrl3.sequencer.mem-master-port::system.pc.com_1.pio            4                       # Packet count per connected master and slave (bytes)
system.iobus.pkt_count_system.ruby.l1_cntrl3.sequencer.mem-master-port::system.ruby.l1_cntrl0.sequencer.pio-slave-port           20                       # Packet count per connected master and slave (bytes)
system.iobus.pkt_count_system.ruby.l1_cntrl3.sequencer.mem-master-port::system.ruby.l1_cntrl1.sequencer.pio-slave-port            8                       # Packet count per connected master and slave (bytes)
system.iobus.pkt_count_system.ruby.l1_cntrl3.sequencer.mem-master-port::system.ruby.l1_cntrl2.sequencer.pio-slave-port           28                       # Packet count per connected master and slave (bytes)
system.iobus.pkt_count_system.ruby.l1_cntrl3.sequencer.mem-master-port::system.ruby.l1_cntrl3.sequencer.pio-slave-port        10348                       # Packet count per connected master and slave (bytes)
system.iobus.pkt_count_system.ruby.l1_cntrl3.sequencer.mem-master-port::total        10408                       # Packet count per connected master and slave (bytes)
system.iobus.pkt_count::total                   48870                       # Packet count per connected master and slave (bytes)
system.iobus.pkt_size_system.pc.south_bridge.io_apic.int_master::system.ruby.l1_cntrl1.sequencer.pio-slave-port         2848                       # Cumulative packet size per connected master and slave (bytes)
system.iobus.pkt_size_system.pc.south_bridge.io_apic.int_master::total         2848                       # Cumulative packet size per connected master and slave (bytes)
system.iobus.pkt_size_system.ruby.l1_cntrl0.sequencer.mem-master-port::system.pc.south_bridge.ide.pio           40                       # Cumulative packet size per connected master and slave (bytes)
system.iobus.pkt_size_system.ruby.l1_cntrl0.sequencer.mem-master-port::system.pc.com_1.pio            9                       # Cumulative packet size per connected master and slave (bytes)
system.iobus.pkt_size_system.ruby.l1_cntrl0.sequencer.mem-master-port::system.ruby.l1_cntrl0.sequencer.pio-slave-port        20616                       # Cumulative packet size per connected master and slave (bytes)
system.iobus.pkt_size_system.ruby.l1_cntrl0.sequencer.mem-master-port::system.ruby.l1_cntrl1.sequencer.pio-slave-port           16                       # Cumulative packet size per connected master and slave (bytes)
system.iobus.pkt_size_system.ruby.l1_cntrl0.sequencer.mem-master-port::system.ruby.l1_cntrl2.sequencer.pio-slave-port           32                       # Cumulative packet size per connected master and slave (bytes)
system.iobus.pkt_size_system.ruby.l1_cntrl0.sequencer.mem-master-port::system.ruby.l1_cntrl3.sequencer.pio-slave-port           16                       # Cumulative packet size per connected master and slave (bytes)
system.iobus.pkt_size_system.ruby.l1_cntrl0.sequencer.mem-master-port::total        20729                       # Cumulative packet size per connected master and slave (bytes)
system.iobus.pkt_size_system.ruby.l1_cntrl1.sequencer.mem-master-port::system.pc.south_bridge.ide.pio          174                       # Cumulative packet size per connected master and slave (bytes)
system.iobus.pkt_size_system.ruby.l1_cntrl1.sequencer.mem-master-port::system.pc.com_1.pio         2801                       # Cumulative packet size per connected master and slave (bytes)
system.iobus.pkt_size_system.ruby.l1_cntrl1.sequencer.mem-master-port::system.ruby.l1_cntrl0.sequencer.pio-slave-port           44                       # Cumulative packet size per connected master and slave (bytes)
system.iobus.pkt_size_system.ruby.l1_cntrl1.sequencer.mem-master-port::system.ruby.l1_cntrl1.sequencer.pio-slave-port        20708                       # Cumulative packet size per connected master and slave (bytes)
system.iobus.pkt_size_system.ruby.l1_cntrl1.sequencer.mem-master-port::system.ruby.l1_cntrl2.sequencer.pio-slave-port            4                       # Cumulative packet size per connected master and slave (bytes)
system.iobus.pkt_size_system.ruby.l1_cntrl1.sequencer.mem-master-port::system.ruby.l1_cntrl3.sequencer.pio-slave-port           24                       # Cumulative packet size per connected master and slave (bytes)
system.iobus.pkt_size_system.ruby.l1_cntrl1.sequencer.mem-master-port::total        23755                       # Cumulative packet size per connected master and slave (bytes)
system.iobus.pkt_size_system.ruby.l1_cntrl2.sequencer.mem-master-port::system.pc.south_bridge.ide.pio           20                       # Cumulative packet size per connected master and slave (bytes)
system.iobus.pkt_size_system.ruby.l1_cntrl2.sequencer.mem-master-port::system.ruby.l1_cntrl0.sequencer.pio-slave-port           16                       # Cumulative packet size per connected master and slave (bytes)
system.iobus.pkt_size_system.ruby.l1_cntrl2.sequencer.mem-master-port::system.ruby.l1_cntrl1.sequencer.pio-slave-port            8                       # Cumulative packet size per connected master and slave (bytes)
system.iobus.pkt_size_system.ruby.l1_cntrl2.sequencer.mem-master-port::system.ruby.l1_cntrl2.sequencer.pio-slave-port        20516                       # Cumulative packet size per connected master and slave (bytes)
system.iobus.pkt_size_system.ruby.l1_cntrl2.sequencer.mem-master-port::system.ruby.l1_cntrl3.sequencer.pio-slave-port            8                       # Cumulative packet size per connected master and slave (bytes)
system.iobus.pkt_size_system.ruby.l1_cntrl2.sequencer.mem-master-port::total        20568                       # Cumulative packet size per connected master and slave (bytes)
system.iobus.pkt_size_system.ruby.l1_cntrl3.sequencer.mem-master-port::system.pc.com_1.pio            2                       # Cumulative packet size per connected master and slave (bytes)
system.iobus.pkt_size_system.ruby.l1_cntrl3.sequencer.mem-master-port::system.ruby.l1_cntrl0.sequencer.pio-slave-port           40                       # Cumulative packet size per connected master and slave (bytes)
system.iobus.pkt_size_system.ruby.l1_cntrl3.sequencer.mem-master-port::system.ruby.l1_cntrl1.sequencer.pio-slave-port           16                       # Cumulative packet size per connected master and slave (bytes)
system.iobus.pkt_size_system.ruby.l1_cntrl3.sequencer.mem-master-port::system.ruby.l1_cntrl2.sequencer.pio-slave-port           56                       # Cumulative packet size per connected master and slave (bytes)
system.iobus.pkt_size_system.ruby.l1_cntrl3.sequencer.mem-master-port::system.ruby.l1_cntrl3.sequencer.pio-slave-port        20696                       # Cumulative packet size per connected master and slave (bytes)
system.iobus.pkt_size_system.ruby.l1_cntrl3.sequencer.mem-master-port::total        20810                       # Cumulative packet size per connected master and slave (bytes)
system.iobus.pkt_size::total                    88710                       # Cumulative packet size per connected master and slave (bytes)
system.iobus.reqLayer2.occupancy               344000                       # Layer occupancy (ticks)
system.iobus.reqLayer2.utilization                0.0                       # Layer utilization (%)
system.iobus.power_state.pwrStateResidencyTicks::UNDEFINED 108811436837001                       # Cumulative time (in ticks) in various power states
system.iobus.reqLayer19.occupancy            10332450                       # Layer occupancy (ticks)
system.iobus.reqLayer19.utilization               0.0                       # Layer utilization (%)
system.iobus.reqLayer17.occupancy            10375958                       # Layer occupancy (ticks)
system.iobus.reqLayer17.utilization               0.0                       # Layer utilization (%)
system.iobus.reqLayer12.occupancy             3557000                       # Layer occupancy (ticks)
system.iobus.reqLayer12.utilization               0.0                       # Layer utilization (%)
system.iobus.reqLayer18.occupancy            11836926                       # Layer occupancy (ticks)
system.iobus.reqLayer18.utilization               0.0                       # Layer utilization (%)
system.iobus.respLayer9.occupancy             7817000                       # Layer occupancy (ticks)
system.iobus.respLayer9.utilization               0.0                       # Layer utilization (%)
system.iobus.respLayer5.occupancy            12916500                       # Layer occupancy (ticks)
system.iobus.respLayer5.utilization               0.0                       # Layer utilization (%)
system.iobus.respLayer7.occupancy             7730500                       # Layer occupancy (ticks)
system.iobus.respLayer7.utilization               0.0                       # Layer utilization (%)
system.iobus.respLayer0.occupancy             1059491                       # Layer occupancy (ticks)
system.iobus.respLayer0.utilization               0.0                       # Layer utilization (%)
system.iobus.respLayer3.occupancy             7814000                       # Layer occupancy (ticks)
system.iobus.respLayer3.utilization               0.0                       # Layer utilization (%)
system.iobus.reqLayer20.occupancy            10373958                       # Layer occupancy (ticks)
system.iobus.reqLayer20.utilization               0.0                       # Layer utilization (%)

---------- End Simulation Statistics   ----------
