
---------- Begin Simulation Statistics ----------
final_tick                               110526426488001                       # Number of ticks from beginning of simulation (restored from checkpoints and never reset)
host_inst_rate                                5090322                       # Simulator instruction rate (inst/s)
host_mem_usage                                1976892                       # Number of bytes of host memory used
host_op_rate                                  5239102                       # Simulator op (including micro ops) rate (op/s)
host_seconds                                  4877.01                       # Real time elapsed on the host
host_tick_rate                              134191731                       # Simulator tick rate (ticks/s)
sim_freq                                 1000000000000                       # Frequency of simulated ticks
sim_insts                                 24825558600                       # Number of instructions simulated
sim_ops                                   25551161926                       # Number of ops (including micro ops) simulated
sim_seconds                                  0.654455                       # Number of seconds simulated
sim_ticks                                654454625501                       # Number of ticks simulated
system.cpu0.committedInsts                          0                       # Number of instructions committed
system.cpu0.dtb.rdAccesses                          0                       # TLB accesses on read requests
system.cpu0.dtb.rdMisses                            0                       # TLB misses on read requests
system.cpu0.dtb.wrAccesses                          0                       # TLB accesses on write requests
system.cpu0.dtb.wrMisses                            0                       # TLB misses on write requests
system.cpu0.itb.rdAccesses                          0                       # TLB accesses on read requests
system.cpu0.itb.rdMisses                            0                       # TLB misses on read requests
system.cpu0.itb.wrAccesses                          0                       # TLB accesses on write requests
system.cpu0.itb.wrMisses                            0                       # TLB misses on write requests
system.cpu0.kern.inst.arm                           0                       # number of arm instructions executed
system.cpu0.kern.inst.quiesce                       0                       # number of quiesce instructions executed
system.cpu0.numCoalescedMMIO                        0                       # number of coalesced memory mapped IO requests
system.cpu0.numCycles                               0                       # number of cpu cycles simulated
system.cpu0.numExitSignal                           0                       # exits due to signal delivery
system.cpu0.numHalt                                 0                       # number of VM exits due to wait for interrupt instructions
system.cpu0.numHypercalls                           0                       # number of hypercalls
system.cpu0.numIO                                   0                       # number of VM exits due to legacy IO
system.cpu0.numInterrupts                           0                       # number of interrupts delivered
system.cpu0.numMMIO                                 0                       # number of VM exits due to memory mapped IO
system.cpu0.numVMExits                              0                       # total number of KVM exits
system.cpu0.numVMHalfEntries                        0                       # number of KVM entries to finalize pending operations
system.cpu0.numWorkItemsCompleted                   0                       # number of work items this cpu completed
system.cpu0.numWorkItemsStarted                     0                       # number of work items this cpu started
system.cpu1.committedInsts                          0                       # Number of instructions committed
system.cpu1.dtb.rdAccesses                          0                       # TLB accesses on read requests
system.cpu1.dtb.rdMisses                            0                       # TLB misses on read requests
system.cpu1.dtb.wrAccesses                          0                       # TLB accesses on write requests
system.cpu1.dtb.wrMisses                            0                       # TLB misses on write requests
system.cpu1.itb.rdAccesses                          0                       # TLB accesses on read requests
system.cpu1.itb.rdMisses                            0                       # TLB misses on read requests
system.cpu1.itb.wrAccesses                          0                       # TLB accesses on write requests
system.cpu1.itb.wrMisses                            0                       # TLB misses on write requests
system.cpu1.kern.inst.arm                           0                       # number of arm instructions executed
system.cpu1.kern.inst.quiesce                       0                       # number of quiesce instructions executed
system.cpu1.numCoalescedMMIO                        0                       # number of coalesced memory mapped IO requests
system.cpu1.numCycles                               0                       # number of cpu cycles simulated
system.cpu1.numExitSignal                           0                       # exits due to signal delivery
system.cpu1.numHalt                                 0                       # number of VM exits due to wait for interrupt instructions
system.cpu1.numHypercalls                           0                       # number of hypercalls
system.cpu1.numIO                                   0                       # number of VM exits due to legacy IO
system.cpu1.numInterrupts                           0                       # number of interrupts delivered
system.cpu1.numMMIO                                 0                       # number of VM exits due to memory mapped IO
system.cpu1.numVMExits                              0                       # total number of KVM exits
system.cpu1.numVMHalfEntries                        0                       # number of KVM entries to finalize pending operations
system.cpu1.numWorkItemsCompleted                   0                       # number of work items this cpu completed
system.cpu1.numWorkItemsStarted                     0                       # number of work items this cpu started
system.cpu2.committedInsts                          0                       # Number of instructions committed
system.cpu2.dtb.rdAccesses                          0                       # TLB accesses on read requests
system.cpu2.dtb.rdMisses                            0                       # TLB misses on read requests
system.cpu2.dtb.wrAccesses                          0                       # TLB accesses on write requests
system.cpu2.dtb.wrMisses                            0                       # TLB misses on write requests
system.cpu2.itb.rdAccesses                          0                       # TLB accesses on read requests
system.cpu2.itb.rdMisses                            0                       # TLB misses on read requests
system.cpu2.itb.wrAccesses                          0                       # TLB accesses on write requests
system.cpu2.itb.wrMisses                            0                       # TLB misses on write requests
system.cpu2.kern.inst.arm                           0                       # number of arm instructions executed
system.cpu2.kern.inst.quiesce                       0                       # number of quiesce instructions executed
system.cpu2.numCoalescedMMIO                        0                       # number of coalesced memory mapped IO requests
system.cpu2.numCycles                               0                       # number of cpu cycles simulated
system.cpu2.numExitSignal                           0                       # exits due to signal delivery
system.cpu2.numHalt                                 0                       # number of VM exits due to wait for interrupt instructions
system.cpu2.numHypercalls                           0                       # number of hypercalls
system.cpu2.numIO                                   0                       # number of VM exits due to legacy IO
system.cpu2.numInterrupts                           0                       # number of interrupts delivered
system.cpu2.numMMIO                                 0                       # number of VM exits due to memory mapped IO
system.cpu2.numVMExits                              0                       # total number of KVM exits
system.cpu2.numVMHalfEntries                        0                       # number of KVM entries to finalize pending operations
system.cpu2.numWorkItemsCompleted                   0                       # number of work items this cpu completed
system.cpu2.numWorkItemsStarted                     0                       # number of work items this cpu started
system.cpu3.committedInsts                          0                       # Number of instructions committed
system.cpu3.dtb.rdAccesses                          0                       # TLB accesses on read requests
system.cpu3.dtb.rdMisses                            0                       # TLB misses on read requests
system.cpu3.dtb.wrAccesses                          0                       # TLB accesses on write requests
system.cpu3.dtb.wrMisses                            0                       # TLB misses on write requests
system.cpu3.itb.rdAccesses                          0                       # TLB accesses on read requests
system.cpu3.itb.rdMisses                            0                       # TLB misses on read requests
system.cpu3.itb.wrAccesses                          0                       # TLB accesses on write requests
system.cpu3.itb.wrMisses                            0                       # TLB misses on write requests
system.cpu3.kern.inst.arm                           0                       # number of arm instructions executed
system.cpu3.kern.inst.quiesce                       0                       # number of quiesce instructions executed
system.cpu3.numCoalescedMMIO                        0                       # number of coalesced memory mapped IO requests
system.cpu3.numCycles                               0                       # number of cpu cycles simulated
system.cpu3.numExitSignal                           0                       # exits due to signal delivery
system.cpu3.numHalt                                 0                       # number of VM exits due to wait for interrupt instructions
system.cpu3.numHypercalls                           0                       # number of hypercalls
system.cpu3.numIO                                   0                       # number of VM exits due to legacy IO
system.cpu3.numInterrupts                           0                       # number of interrupts delivered
system.cpu3.numMMIO                                 0                       # number of VM exits due to memory mapped IO
system.cpu3.numVMExits                              0                       # total number of KVM exits
system.cpu3.numVMHalfEntries                        0                       # number of KVM entries to finalize pending operations
system.cpu3.numWorkItemsCompleted                   0                       # number of work items this cpu completed
system.cpu3.numWorkItemsStarted                     0                       # number of work items this cpu started
system.pc.south_bridge.ide.disks.dma_read_bytes     25636864                       # Number of bytes transfered via DMA reads (not PRD).
system.pc.south_bridge.ide.disks.dma_read_full_pages         6259                       # Number of full page size DMA reads (not PRD).
system.pc.south_bridge.ide.disks.dma_read_txs         6259                       # Number of DMA read transactions (not PRD).
system.pc.south_bridge.ide.disks.dma_write_bytes       233472                       # Number of bytes transfered via DMA writes.
system.pc.south_bridge.ide.disks.dma_write_full_pages           57                       # Number of full page size DMA writes.
system.pc.south_bridge.ide.disks.dma_write_txs           57                       # Number of DMA write transactions.
system.ruby.DMA_Controller.I.allocI_load |      400873    100.00%    100.00% |           0      0.00%    100.00%
system.ruby.DMA_Controller.I.allocI_load::total       400873                      
system.ruby.DMA_Controller.I.allocI_store |        3648    100.00%    100.00% |           0      0.00%    100.00%
system.ruby.DMA_Controller.I.allocI_store::total         3648                      
system.ruby.DMA_Controller.I.deallocnet0from_in |        3452    100.00%    100.00% |           0      0.00%    100.00%
system.ruby.DMA_Controller.I.deallocnet0from_in::total         3452                      
system.ruby.DMA_Controller.I.deallocnet2from_in |      400045    100.00%    100.00% |           0      0.00%    100.00%
system.ruby.DMA_Controller.I.deallocnet2from_in::total       400045                      
system.ruby.DMA_Controller.M.allocTBE    |        3648    100.00%    100.00% |           0      0.00%    100.00%
system.ruby.DMA_Controller.M.allocTBE::total         3648                      
system.ruby.DMA_Controller.M.externalstoreMnet1from_in |        3648    100.00%    100.00% |           0      0.00%    100.00%
system.ruby.DMA_Controller.M.externalstoreMnet1from_in::total         3648                      
system.ruby.DMA_Controller.M_evict.Stallmandatory_in |       50995    100.00%    100.00% |           0      0.00%    100.00%
system.ruby.DMA_Controller.M_evict.Stallmandatory_in::total        50995                      
system.ruby.DMA_Controller.S.SloadSEvent |         723    100.00%    100.00% |           0      0.00%    100.00%
system.ruby.DMA_Controller.S.SloadSEvent::total          723                      
system.ruby.DMA_Controller.S.allocTBE    |      400046    100.00%    100.00% |           0      0.00%    100.00%
system.ruby.DMA_Controller.S.allocTBE::total       400046                      
system.ruby.DMA_Controller.S.deallocTBE  |         196    100.00%    100.00% |           0      0.00%    100.00%
system.ruby.DMA_Controller.S.deallocTBE::total          196                      
system.ruby.DMA_Controller.S.externalloadSnet0from_in |      400669    100.00%    100.00% |           0      0.00%    100.00%
system.ruby.DMA_Controller.S.externalloadSnet0from_in::total       400669                      
system.ruby.DMA_Controller.S.externalloadSrespfrom_in |         204    100.00%    100.00% |           0      0.00%    100.00%
system.ruby.DMA_Controller.S.externalloadSrespfrom_in::total          204                      
system.ruby.DMA_Controller.S_evict.Stallmandatory_in |     1158716    100.00%    100.00% |           0      0.00%    100.00%
system.ruby.DMA_Controller.S_evict.Stallmandatory_in::total      1158716                      
system.ruby.DMA_Controller.SloadSEvent   |         723    100.00%    100.00% |           0      0.00%    100.00%
system.ruby.DMA_Controller.SloadSEvent::total          723                      
system.ruby.DMA_Controller.Stallmandatory_in |     1209711    100.00%    100.00% |           0      0.00%    100.00%
system.ruby.DMA_Controller.Stallmandatory_in::total      1209711                      
system.ruby.DMA_Controller.allocI_load   |      400873    100.00%    100.00% |           0      0.00%    100.00%
system.ruby.DMA_Controller.allocI_load::total       400873                      
system.ruby.DMA_Controller.allocI_store  |        3648    100.00%    100.00% |           0      0.00%    100.00%
system.ruby.DMA_Controller.allocI_store::total         3648                      
system.ruby.DMA_Controller.allocTBE      |      403694    100.00%    100.00% |           0      0.00%    100.00%
system.ruby.DMA_Controller.allocTBE::total       403694                      
system.ruby.DMA_Controller.deallocTBE    |         196    100.00%    100.00% |           0      0.00%    100.00%
system.ruby.DMA_Controller.deallocTBE::total          196                      
system.ruby.DMA_Controller.deallocnet0from_in |        3452    100.00%    100.00% |           0      0.00%    100.00%
system.ruby.DMA_Controller.deallocnet0from_in::total         3452                      
system.ruby.DMA_Controller.deallocnet2from_in |      400045    100.00%    100.00% |           0      0.00%    100.00%
system.ruby.DMA_Controller.deallocnet2from_in::total       400045                      
system.ruby.DMA_Controller.externalloadSnet0from_in |      400669    100.00%    100.00% |           0      0.00%    100.00%
system.ruby.DMA_Controller.externalloadSnet0from_in::total       400669                      
system.ruby.DMA_Controller.externalloadSrespfrom_in |         204    100.00%    100.00% |           0      0.00%    100.00%
system.ruby.DMA_Controller.externalloadSrespfrom_in::total          204                      
system.ruby.DMA_Controller.externalstoreMnet1from_in |        3648    100.00%    100.00% |           0      0.00%    100.00%
system.ruby.DMA_Controller.externalstoreMnet1from_in::total         3648                      
system.ruby.Directory_Controller.I.allocTBE |      490263     25.59%     25.59% |      484142     25.27%     50.85% |      466065     24.32%     75.17% |      475726     24.83%    100.00%
system.ruby.Directory_Controller.I.allocTBE::total      1916196                      
system.ruby.Directory_Controller.I.deallocTBE |      489324     25.59%     25.59% |      483217     25.27%     50.85% |      465131     24.32%     75.17% |      474805     24.83%    100.00%
system.ruby.Directory_Controller.I.deallocTBE::total      1912477                      
system.ruby.Directory_Controller.I_GetML1C1_0.Stallreqto_in |           0      0.00%      0.00% |           0      0.00%      0.00% |           9    100.00%    100.00% |           0      0.00%    100.00%
system.ruby.Directory_Controller.I_GetML1C1_0.Stallreqto_in::total            9                      
system.ruby.Directory_Controller.I_GetSL1C1_0.Stallreqto_in |           2      4.44%      4.44% |          27     60.00%     64.44% |           2      4.44%     68.89% |          14     31.11%    100.00%
system.ruby.Directory_Controller.I_GetSL1C1_0.Stallreqto_in::total           45                      
system.ruby.Directory_Controller.M.allocTBE |       57862     25.77%     25.77% |       57566     25.64%     51.41% |       54567     24.30%     75.71% |       54536     24.29%    100.00%
system.ruby.Directory_Controller.M.allocTBE::total       224531                      
system.ruby.Directory_Controller.M.deallocTBE |       57999     25.77%     25.77% |       57686     25.63%     51.40% |       54718     24.31%     75.71% |       54673     24.29%    100.00%
system.ruby.Directory_Controller.M.deallocTBE::total       225076                      
system.ruby.Directory_Controller.M_GetS.Progress |        2678     32.18%     32.18% |        2192     26.34%     58.51% |        1931     23.20%     81.71% |        1522     18.29%    100.00%
system.ruby.Directory_Controller.M_GetS.Progress::total         8323                      
system.ruby.Directory_Controller.M_GetS.Stallreqto_in |           0      0.00%      0.00% |           6     15.38%     15.38% |           2      5.13%     20.51% |          31     79.49%    100.00%
system.ruby.Directory_Controller.M_GetS.Stallreqto_in::total           39                      
system.ruby.Directory_Controller.M_GetS_WBL1C1_0.Stallreqto_in |         115     27.45%     27.45% |         163     38.90%     66.35% |          35      8.35%     74.70% |         106     25.30%    100.00%
system.ruby.Directory_Controller.M_GetS_WBL1C1_0.Stallreqto_in::total          419                      
system.ruby.Directory_Controller.M_PutML1C1_0.Stallreqto_in |           0      0.00%      0.00% |           0      0.00%      0.00% |           2    100.00%    100.00% |           0      0.00%    100.00%
system.ruby.Directory_Controller.M_PutML1C1_0.Stallreqto_in::total            2                      
system.ruby.Directory_Controller.Progress |        2678     32.18%     32.18% |        2192     26.34%     58.51% |        1931     23.20%     81.71% |        1522     18.29%    100.00%
system.ruby.Directory_Controller.Progress::total         8323                      
system.ruby.Directory_Controller.S.allocTBE |      767179     24.72%     24.72% |      800490     25.79%     50.50% |      751481     24.21%     74.71% |      784849     25.29%    100.00%
system.ruby.Directory_Controller.S.allocTBE::total      3103999                      
system.ruby.Directory_Controller.S.deallocTBE |      767981     24.72%     24.72% |      801295     25.79%     50.50% |      752264     24.21%     74.72% |      785633     25.28%    100.00%
system.ruby.Directory_Controller.S.deallocTBE::total      3107173                      
system.ruby.Directory_Controller.S_GetML1C1_1.Stallreqto_in |           2     10.53%     10.53% |          16     84.21%     94.74% |           1      5.26%    100.00% |           0      0.00%    100.00%
system.ruby.Directory_Controller.S_GetML1C1_1.Stallreqto_in::total           19                      
system.ruby.Directory_Controller.S_GetML1C1_2.Stallreqto_in |           0      0.00%      0.00% |           3     42.86%     42.86% |           4     57.14%    100.00% |           0      0.00%    100.00%
system.ruby.Directory_Controller.S_GetML1C1_2.Stallreqto_in::total            7                      
system.ruby.Directory_Controller.S_GetSL1C1_0.Stallreqto_in |          56     33.14%     33.14% |          58     34.32%     67.46% |          15      8.88%     76.33% |          40     23.67%    100.00%
system.ruby.Directory_Controller.S_GetSL1C1_0.Stallreqto_in::total          169                      
system.ruby.Directory_Controller.Stallreqto_in |         175     24.68%     24.68% |         273     38.50%     63.19% |          70      9.87%     73.06% |         191     26.94%    100.00%
system.ruby.Directory_Controller.Stallreqto_in::total          709                      
system.ruby.Directory_Controller.allocTBE |     1315304     25.08%     25.08% |     1342198     25.59%     50.67% |     1272113     24.26%     74.93% |     1315111     25.07%    100.00%
system.ruby.Directory_Controller.allocTBE::total      5244726                      
system.ruby.Directory_Controller.deallocTBE |     1315304     25.08%     25.08% |     1342198     25.59%     50.67% |     1272113     24.26%     74.93% |     1315111     25.07%    100.00%
system.ruby.Directory_Controller.deallocTBE::total      5244726                      
system.ruby.IFETCH.hit_latency_hist_seqr::bucket_size            1                      
system.ruby.IFETCH.hit_latency_hist_seqr::max_bucket            9                      
system.ruby.IFETCH.hit_latency_hist_seqr::samples   1568718061                      
system.ruby.IFETCH.hit_latency_hist_seqr |  1568718061    100.00%    100.00% |           0      0.00%    100.00% |           0      0.00%    100.00% |           0      0.00%    100.00% |           0      0.00%    100.00% |           0      0.00%    100.00% |           0      0.00%    100.00% |           0      0.00%    100.00% |           0      0.00%    100.00% |           0      0.00%    100.00%
system.ruby.IFETCH.hit_latency_hist_seqr::total   1568718061                      
system.ruby.IFETCH.latency_hist_seqr::bucket_size            1                      
system.ruby.IFETCH.latency_hist_seqr::max_bucket            9                      
system.ruby.IFETCH.latency_hist_seqr::samples   1569394672                      
system.ruby.IFETCH.latency_hist_seqr     |  1569394672    100.00%    100.00% |           0      0.00%    100.00% |           0      0.00%    100.00% |           0      0.00%    100.00% |           0      0.00%    100.00% |           0      0.00%    100.00% |           0      0.00%    100.00% |           0      0.00%    100.00% |           0      0.00%    100.00% |           0      0.00%    100.00%
system.ruby.IFETCH.latency_hist_seqr::total   1569394672                      
system.ruby.IFETCH.miss_latency_hist_seqr::bucket_size            1                      
system.ruby.IFETCH.miss_latency_hist_seqr::max_bucket            9                      
system.ruby.IFETCH.miss_latency_hist_seqr::samples       676611                      
system.ruby.IFETCH.miss_latency_hist_seqr |      676611    100.00%    100.00% |           0      0.00%    100.00% |           0      0.00%    100.00% |           0      0.00%    100.00% |           0      0.00%    100.00% |           0      0.00%    100.00% |           0      0.00%    100.00% |           0      0.00%    100.00% |           0      0.00%    100.00% |           0      0.00%    100.00%
system.ruby.IFETCH.miss_latency_hist_seqr::total       676611                      
system.ruby.L1Cache_Controller.I.allocI_load |      572969     27.88%     27.88% |      487310     23.71%     51.59% |      505287     24.59%     76.18% |      489641     23.82%    100.00%
system.ruby.L1Cache_Controller.I.allocI_load::total      2055207                      
system.ruby.L1Cache_Controller.I.allocI_store |       32262     25.88%     25.88% |       27695     22.22%     48.09% |       28790     23.09%     71.19% |       35917     28.81%    100.00%
system.ruby.L1Cache_Controller.I.allocI_store::total       124664                      
system.ruby.L1Cache_Controller.I.deallocnet0from_in |       59705     28.06%     28.06% |       47227     22.20%     50.26% |       54667     25.69%     75.96% |       51156     24.04%    100.00%
system.ruby.L1Cache_Controller.I.deallocnet0from_in::total       212755                      
system.ruby.L1Cache_Controller.I.deallocnet1from_in |           0      0.00%      0.00% |           0      0.00%      0.00% |           1    100.00%    100.00% |           0      0.00%    100.00%
system.ruby.L1Cache_Controller.I.deallocnet1from_in::total            1                      
system.ruby.L1Cache_Controller.I.deallocnet2from_in |      544506     27.74%     27.74% |      466760     23.78%     51.52% |      478386     24.37%     75.88% |      473389     24.12%    100.00%
system.ruby.L1Cache_Controller.I.deallocnet2from_in::total      1963041                      
system.ruby.L1Cache_Controller.I_evict.Progress |           0      0.00%      0.00% |           0      0.00%      0.00% |           1    100.00%    100.00% |           0      0.00%    100.00%
system.ruby.L1Cache_Controller.I_evict.Progress::total            1                      
system.ruby.L1Cache_Controller.I_evict.Stallmandatory_in |           0      0.00%      0.00% |           0      0.00%      0.00% |           1    100.00%    100.00% |           0      0.00%    100.00%
system.ruby.L1Cache_Controller.I_evict.Stallmandatory_in::total            1                      
system.ruby.L1Cache_Controller.I_store.Progress |           1     11.11%     11.11% |           3     33.33%     44.44% |           2     22.22%     66.67% |           3     33.33%    100.00%
system.ruby.L1Cache_Controller.I_store.Progress::total            9                      
system.ruby.L1Cache_Controller.I_store.Stallnet0from_in |           6     17.65%     17.65% |          10     29.41%     47.06% |          16     47.06%     94.12% |           2      5.88%    100.00%
system.ruby.L1Cache_Controller.I_store.Stallnet0from_in::total           34                      
system.ruby.L1Cache_Controller.I_store_GetM_Ack_AD.Progress |        1064     69.63%     69.63% |         114      7.46%     77.09% |         230     15.05%     92.15% |         120      7.85%    100.00%
system.ruby.L1Cache_Controller.I_store_GetM_Ack_AD.Progress::total         1528                      
system.ruby.L1Cache_Controller.M.MloadMEvent |    66535030     24.11%     24.11% |    69354978     25.13%     49.24% |    68194209     24.71%     73.95% |    71904758     26.05%    100.00%
system.ruby.L1Cache_Controller.M.MloadMEvent::total    275988975                      
system.ruby.L1Cache_Controller.M.MstoreMEvent |    29313156     25.23%     25.23% |    28879663     24.86%     50.09% |    28517642     24.55%     74.63% |    29471807     25.37%    100.00%
system.ruby.L1Cache_Controller.M.MstoreMEvent::total    116182268                      
system.ruby.L1Cache_Controller.M.allocTBE |       63521     28.76%     28.76% |       48773     22.08%     50.84% |       56584     25.62%     76.46% |       52004     23.54%    100.00%
system.ruby.L1Cache_Controller.M.allocTBE::total       220882                      
system.ruby.L1Cache_Controller.M.externalstoreMnet1from_in |       59334     28.24%     28.24% |       45825     21.81%     50.06% |       54001     25.71%     75.76% |       50914     24.24%    100.00%
system.ruby.L1Cache_Controller.M.externalstoreMnet1from_in::total       210074                      
system.ruby.L1Cache_Controller.M.externalstoreMrespfrom_in |        4308     37.95%     37.95% |        3047     26.84%     64.78% |        2722     23.98%     88.76% |        1276     11.24%    100.00%
system.ruby.L1Cache_Controller.M.externalstoreMrespfrom_in::total        11353                      
system.ruby.L1Cache_Controller.M_evict.Stallmandatory_in |          94     17.09%     17.09% |          64     11.64%     28.73% |         336     61.09%     89.82% |          56     10.18%    100.00%
system.ruby.L1Cache_Controller.M_evict.Stallmandatory_in::total          550                      
system.ruby.L1Cache_Controller.MloadMEvent |    66535030     24.11%     24.11% |    69354978     25.13%     49.24% |    68194209     24.71%     73.95% |    71904758     26.05%    100.00%
system.ruby.L1Cache_Controller.MloadMEvent::total    275988975                      
system.ruby.L1Cache_Controller.MstoreMEvent |    29313156     25.23%     25.23% |    28879663     24.86%     50.09% |    28517642     24.55%     74.63% |    29471807     25.37%    100.00%
system.ruby.L1Cache_Controller.MstoreMEvent::total    116182268                      
system.ruby.L1Cache_Controller.Progress  |       39291     36.07%     36.07% |       22834     20.96%     57.03% |       29722     27.28%     84.31% |       17089     15.69%    100.00%
system.ruby.L1Cache_Controller.Progress::total       108936                      
system.ruby.L1Cache_Controller.S.SloadSEvent |   420532217     26.01%     26.01% |   396812965     24.55%     50.56% |   396532785     24.53%     75.09% |   402778194     24.91%    100.00%
system.ruby.L1Cache_Controller.S.SloadSEvent::total   1616656161                      
system.ruby.L1Cache_Controller.S.allocTBE |      575886     27.96%     27.96% |      487937     23.69%     51.65% |      506320     24.58%     76.23% |      489662     23.77%    100.00%
system.ruby.L1Cache_Controller.S.allocTBE::total      2059805                      
system.ruby.L1Cache_Controller.S.deallocTBE |        3816     46.95%     46.95% |        1546     19.02%     65.98% |        1917     23.59%     89.57% |         848     10.43%    100.00%
system.ruby.L1Cache_Controller.S.deallocTBE::total         8127                      
system.ruby.L1Cache_Controller.S.externalloadSnet0from_in |      572354     27.96%     27.96% |      485132     23.70%     51.66% |      503848     24.61%     76.27% |      485754     23.73%    100.00%
system.ruby.L1Cache_Controller.S.externalloadSnet0from_in::total      2047088                      
system.ruby.L1Cache_Controller.S.externalloadSrespfrom_in |         615      7.57%      7.57% |        2178     26.83%     34.40% |        1439     17.72%     52.12% |        3887     47.88%    100.00%
system.ruby.L1Cache_Controller.S.externalloadSrespfrom_in::total         8119                      
system.ruby.L1Cache_Controller.S_evict.Stallmandatory_in |         181     22.43%     22.43% |         134     16.60%     39.03% |         384     47.58%     86.62% |         108     13.38%    100.00%
system.ruby.L1Cache_Controller.S_evict.Stallmandatory_in::total          807                      
system.ruby.L1Cache_Controller.S_store.Progress |       31381     32.43%     32.43% |       21177     21.89%     54.32% |       27933     28.87%     83.18% |       16273     16.82%    100.00%
system.ruby.L1Cache_Controller.S_store.Progress::total        96764                      
system.ruby.L1Cache_Controller.S_store.Stallnet0from_in |           2      8.70%      8.70% |          13     56.52%     65.22% |           7     30.43%     95.65% |           1      4.35%    100.00%
system.ruby.L1Cache_Controller.S_store.Stallnet0from_in::total           23                      
system.ruby.L1Cache_Controller.S_store_GetM_Ack_AD.Progress |        6845     64.37%     64.37% |        1540     14.48%     78.85% |        1556     14.63%     93.48% |         693      6.52%    100.00%
system.ruby.L1Cache_Controller.S_store_GetM_Ack_AD.Progress::total        10634                      
system.ruby.L1Cache_Controller.S_store_GetM_Ack_AD.Stallnet0from_in |          11     39.29%     39.29% |          13     46.43%     85.71% |           3     10.71%     96.43% |           1      3.57%    100.00%
system.ruby.L1Cache_Controller.S_store_GetM_Ack_AD.Stallnet0from_in::total           28                      
system.ruby.L1Cache_Controller.SloadSEvent |   420532217     26.01%     26.01% |   396812965     24.55%     50.56% |   396532785     24.53%     75.09% |   402778194     24.91%    100.00%
system.ruby.L1Cache_Controller.SloadSEvent::total   1616656161                      
system.ruby.L1Cache_Controller.Stallmandatory_in |         275     20.25%     20.25% |         198     14.58%     34.83% |         721     53.09%     87.92% |         164     12.08%    100.00%
system.ruby.L1Cache_Controller.Stallmandatory_in::total         1358                      
system.ruby.L1Cache_Controller.Stallnet0from_in |          19     22.35%     22.35% |          36     42.35%     64.71% |          26     30.59%     95.29% |           4      4.71%    100.00%
system.ruby.L1Cache_Controller.Stallnet0from_in::total           85                      
system.ruby.L1Cache_Controller.allocI_load |      572969     27.88%     27.88% |      487310     23.71%     51.59% |      505287     24.59%     76.18% |      489641     23.82%    100.00%
system.ruby.L1Cache_Controller.allocI_load::total      2055207                      
system.ruby.L1Cache_Controller.allocI_store |       32262     25.88%     25.88% |       27695     22.22%     48.09% |       28790     23.09%     71.19% |       35917     28.81%    100.00%
system.ruby.L1Cache_Controller.allocI_store::total       124664                      
system.ruby.L1Cache_Controller.allocTBE  |      639407     28.04%     28.04% |      536710     23.53%     51.57% |      562904     24.68%     76.25% |      541666     23.75%    100.00%
system.ruby.L1Cache_Controller.allocTBE::total      2280687                      
system.ruby.L1Cache_Controller.deallocTBE |        3816     46.95%     46.95% |        1546     19.02%     65.98% |        1917     23.59%     89.57% |         848     10.43%    100.00%
system.ruby.L1Cache_Controller.deallocTBE::total         8127                      
system.ruby.L1Cache_Controller.deallocnet0from_in |       59705     28.06%     28.06% |       47227     22.20%     50.26% |       54667     25.69%     75.96% |       51156     24.04%    100.00%
system.ruby.L1Cache_Controller.deallocnet0from_in::total       212755                      
system.ruby.L1Cache_Controller.deallocnet1from_in |           0      0.00%      0.00% |           0      0.00%      0.00% |           1    100.00%    100.00% |           0      0.00%    100.00%
system.ruby.L1Cache_Controller.deallocnet1from_in::total            1                      
system.ruby.L1Cache_Controller.deallocnet2from_in |      544506     27.74%     27.74% |      466760     23.78%     51.52% |      478386     24.37%     75.88% |      473389     24.12%    100.00%
system.ruby.L1Cache_Controller.deallocnet2from_in::total      1963041                      
system.ruby.L1Cache_Controller.externalloadSnet0from_in |      572354     27.96%     27.96% |      485132     23.70%     51.66% |      503848     24.61%     76.27% |      485754     23.73%    100.00%
system.ruby.L1Cache_Controller.externalloadSnet0from_in::total      2047088                      
system.ruby.L1Cache_Controller.externalloadSrespfrom_in |         615      7.57%      7.57% |        2178     26.83%     34.40% |        1439     17.72%     52.12% |        3887     47.88%    100.00%
system.ruby.L1Cache_Controller.externalloadSrespfrom_in::total         8119                      
system.ruby.L1Cache_Controller.externalstoreMnet1from_in |       59334     28.24%     28.24% |       45825     21.81%     50.06% |       54001     25.71%     75.76% |       50914     24.24%    100.00%
system.ruby.L1Cache_Controller.externalstoreMnet1from_in::total       210074                      
system.ruby.L1Cache_Controller.externalstoreMrespfrom_in |        4308     37.95%     37.95% |        3047     26.84%     64.78% |        2722     23.98%     88.76% |        1276     11.24%    100.00%
system.ruby.L1Cache_Controller.externalstoreMrespfrom_in::total        11353                      
system.ruby.LD.hit_latency_hist_seqr::bucket_size            1                      
system.ruby.LD.hit_latency_hist_seqr::max_bucket            9                      
system.ruby.LD.hit_latency_hist_seqr::samples    323927075                      
system.ruby.LD.hit_latency_hist_seqr     |   323927075    100.00%    100.00% |           0      0.00%    100.00% |           0      0.00%    100.00% |           0      0.00%    100.00% |           0      0.00%    100.00% |           0      0.00%    100.00% |           0      0.00%    100.00% |           0      0.00%    100.00% |           0      0.00%    100.00% |           0      0.00%    100.00%
system.ruby.LD.hit_latency_hist_seqr::total    323927075                      
system.ruby.LD.latency_hist_seqr::bucket_size            1                      
system.ruby.LD.latency_hist_seqr::max_bucket            9                      
system.ruby.LD.latency_hist_seqr::samples    325305671                      
system.ruby.LD.latency_hist_seqr         |   325305671    100.00%    100.00% |           0      0.00%    100.00% |           0      0.00%    100.00% |           0      0.00%    100.00% |           0      0.00%    100.00% |           0      0.00%    100.00% |           0      0.00%    100.00% |           0      0.00%    100.00% |           0      0.00%    100.00% |           0      0.00%    100.00%
system.ruby.LD.latency_hist_seqr::total     325305671                      
system.ruby.LD.miss_latency_hist_seqr::bucket_size            1                      
system.ruby.LD.miss_latency_hist_seqr::max_bucket            9                      
system.ruby.LD.miss_latency_hist_seqr::samples      1378596                      
system.ruby.LD.miss_latency_hist_seqr    |     1378596    100.00%    100.00% |           0      0.00%    100.00% |           0      0.00%    100.00% |           0      0.00%    100.00% |           0      0.00%    100.00% |           0      0.00%    100.00% |           0      0.00%    100.00% |           0      0.00%    100.00% |           0      0.00%    100.00% |           0      0.00%    100.00%
system.ruby.LD.miss_latency_hist_seqr::total      1378596                      
system.ruby.Locked_RMW_Read.hit_latency_hist_seqr::bucket_size            1                      
system.ruby.Locked_RMW_Read.hit_latency_hist_seqr::max_bucket            9                      
system.ruby.Locked_RMW_Read.hit_latency_hist_seqr::samples       130522                      
system.ruby.Locked_RMW_Read.hit_latency_hist_seqr |      130522    100.00%    100.00% |           0      0.00%    100.00% |           0      0.00%    100.00% |           0      0.00%    100.00% |           0      0.00%    100.00% |           0      0.00%    100.00% |           0      0.00%    100.00% |           0      0.00%    100.00% |           0      0.00%    100.00% |           0      0.00%    100.00%
system.ruby.Locked_RMW_Read.hit_latency_hist_seqr::total       130522                      
system.ruby.Locked_RMW_Read.latency_hist_seqr::bucket_size            1                      
system.ruby.Locked_RMW_Read.latency_hist_seqr::max_bucket            9                      
system.ruby.Locked_RMW_Read.latency_hist_seqr::samples       169266                      
system.ruby.Locked_RMW_Read.latency_hist_seqr |      169266    100.00%    100.00% |           0      0.00%    100.00% |           0      0.00%    100.00% |           0      0.00%    100.00% |           0      0.00%    100.00% |           0      0.00%    100.00% |           0      0.00%    100.00% |           0      0.00%    100.00% |           0      0.00%    100.00% |           0      0.00%    100.00%
system.ruby.Locked_RMW_Read.latency_hist_seqr::total       169266                      
system.ruby.Locked_RMW_Read.miss_latency_hist_seqr::bucket_size            1                      
system.ruby.Locked_RMW_Read.miss_latency_hist_seqr::max_bucket            9                      
system.ruby.Locked_RMW_Read.miss_latency_hist_seqr::samples        38744                      
system.ruby.Locked_RMW_Read.miss_latency_hist_seqr |       38744    100.00%    100.00% |           0      0.00%    100.00% |           0      0.00%    100.00% |           0      0.00%    100.00% |           0      0.00%    100.00% |           0      0.00%    100.00% |           0      0.00%    100.00% |           0      0.00%    100.00% |           0      0.00%    100.00% |           0      0.00%    100.00%
system.ruby.Locked_RMW_Read.miss_latency_hist_seqr::total        38744                      
system.ruby.Locked_RMW_Write.hit_latency_hist_seqr::bucket_size            1                      
system.ruby.Locked_RMW_Write.hit_latency_hist_seqr::max_bucket            9                      
system.ruby.Locked_RMW_Write.hit_latency_hist_seqr::samples       169266                      
system.ruby.Locked_RMW_Write.hit_latency_hist_seqr |      169266    100.00%    100.00% |           0      0.00%    100.00% |           0      0.00%    100.00% |           0      0.00%    100.00% |           0      0.00%    100.00% |           0      0.00%    100.00% |           0      0.00%    100.00% |           0      0.00%    100.00% |           0      0.00%    100.00% |           0      0.00%    100.00%
system.ruby.Locked_RMW_Write.hit_latency_hist_seqr::total       169266                      
system.ruby.Locked_RMW_Write.latency_hist_seqr::bucket_size            1                      
system.ruby.Locked_RMW_Write.latency_hist_seqr::max_bucket            9                      
system.ruby.Locked_RMW_Write.latency_hist_seqr::samples       169266                      
system.ruby.Locked_RMW_Write.latency_hist_seqr |      169266    100.00%    100.00% |           0      0.00%    100.00% |           0      0.00%    100.00% |           0      0.00%    100.00% |           0      0.00%    100.00% |           0      0.00%    100.00% |           0      0.00%    100.00% |           0      0.00%    100.00% |           0      0.00%    100.00% |           0      0.00%    100.00%
system.ruby.Locked_RMW_Write.latency_hist_seqr::total       169266                      
system.ruby.RMW_Read.hit_latency_hist_seqr::bucket_size            1                      
system.ruby.RMW_Read.hit_latency_hist_seqr::max_bucket            9                      
system.ruby.RMW_Read.hit_latency_hist_seqr::samples      2171608                      
system.ruby.RMW_Read.hit_latency_hist_seqr |     2171608    100.00%    100.00% |           0      0.00%    100.00% |           0      0.00%    100.00% |           0      0.00%    100.00% |           0      0.00%    100.00% |           0      0.00%    100.00% |           0      0.00%    100.00% |           0      0.00%    100.00% |           0      0.00%    100.00% |           0      0.00%    100.00%
system.ruby.RMW_Read.hit_latency_hist_seqr::total      2171608                      
system.ruby.RMW_Read.latency_hist_seqr::bucket_size            1                      
system.ruby.RMW_Read.latency_hist_seqr::max_bucket            9                      
system.ruby.RMW_Read.latency_hist_seqr::samples      2191057                      
system.ruby.RMW_Read.latency_hist_seqr   |     2191057    100.00%    100.00% |           0      0.00%    100.00% |           0      0.00%    100.00% |           0      0.00%    100.00% |           0      0.00%    100.00% |           0      0.00%    100.00% |           0      0.00%    100.00% |           0      0.00%    100.00% |           0      0.00%    100.00% |           0      0.00%    100.00%
system.ruby.RMW_Read.latency_hist_seqr::total      2191057                      
system.ruby.RMW_Read.miss_latency_hist_seqr::bucket_size            1                      
system.ruby.RMW_Read.miss_latency_hist_seqr::max_bucket            9                      
system.ruby.RMW_Read.miss_latency_hist_seqr::samples        19449                      
system.ruby.RMW_Read.miss_latency_hist_seqr |       19449    100.00%    100.00% |           0      0.00%    100.00% |           0      0.00%    100.00% |           0      0.00%    100.00% |           0      0.00%    100.00% |           0      0.00%    100.00% |           0      0.00%    100.00% |           0      0.00%    100.00% |           0      0.00%    100.00% |           0      0.00%    100.00%
system.ruby.RMW_Read.miss_latency_hist_seqr::total        19449                      
system.ruby.ST.hit_latency_hist_seqr::bucket_size            1                      
system.ruby.ST.hit_latency_hist_seqr::max_bucket            9                      
system.ruby.ST.hit_latency_hist_seqr::samples    113710872                      
system.ruby.ST.hit_latency_hist_seqr     |   113710872    100.00%    100.00% |           0      0.00%    100.00% |           0      0.00%    100.00% |           0      0.00%    100.00% |           0      0.00%    100.00% |           0      0.00%    100.00% |           0      0.00%    100.00% |           0      0.00%    100.00% |           0      0.00%    100.00% |           0      0.00%    100.00%
system.ruby.ST.hit_latency_hist_seqr::total    113710872                      
system.ruby.ST.latency_hist_seqr::bucket_size            1                      
system.ruby.ST.latency_hist_seqr::max_bucket            9                      
system.ruby.ST.latency_hist_seqr::samples    113874106                      
system.ruby.ST.latency_hist_seqr         |   113874106    100.00%    100.00% |           0      0.00%    100.00% |           0      0.00%    100.00% |           0      0.00%    100.00% |           0      0.00%    100.00% |           0      0.00%    100.00% |           0      0.00%    100.00% |           0      0.00%    100.00% |           0      0.00%    100.00% |           0      0.00%    100.00%
system.ruby.ST.latency_hist_seqr::total     113874106                      
system.ruby.ST.miss_latency_hist_seqr::bucket_size            1                      
system.ruby.ST.miss_latency_hist_seqr::max_bucket            9                      
system.ruby.ST.miss_latency_hist_seqr::samples       163234                      
system.ruby.ST.miss_latency_hist_seqr    |      163234    100.00%    100.00% |           0      0.00%    100.00% |           0      0.00%    100.00% |           0      0.00%    100.00% |           0      0.00%    100.00% |           0      0.00%    100.00% |           0      0.00%    100.00% |           0      0.00%    100.00% |           0      0.00%    100.00% |           0      0.00%    100.00%
system.ruby.ST.miss_latency_hist_seqr::total       163234                      
system.ruby.dir_cntrl0.net0From.avg_buf_msgs     0.005141                       # Average number of messages in buffer
system.ruby.dir_cntrl0.net0From.avg_stall_time  3092.452065                       # Average number of cycles messages are stalled in this MB
system.ruby.dir_cntrl0.net1From.avg_buf_msgs     0.000275                       # Average number of messages in buffer
system.ruby.dir_cntrl0.net1From.avg_stall_time  3001.353529                       # Average number of cycles messages are stalled in this MB
system.ruby.dir_cntrl0.net2From.avg_buf_msgs     0.002705                       # Average number of messages in buffer
system.ruby.dir_cntrl0.net2From.avg_stall_time  2999.984274                       # Average number of cycles messages are stalled in this MB
system.ruby.dir_cntrl0.reqTo.avg_buf_msgs     0.001006                       # Average number of messages in buffer
system.ruby.dir_cntrl0.reqTo.avg_stall_time  4288.205501                       # Average number of cycles messages are stalled in this MB
system.ruby.dir_cntrl0.requestToMemory.avg_buf_msgs     0.000555                       # Average number of messages in buffer
system.ruby.dir_cntrl0.requestToMemory.avg_stall_time   499.999672                       # Average number of cycles messages are stalled in this MB
system.ruby.dir_cntrl0.respTo.avg_buf_msgs     0.000002                       # Average number of messages in buffer
system.ruby.dir_cntrl0.respTo.avg_stall_time 13638.919518                       # Average number of cycles messages are stalled in this MB
system.ruby.dir_cntrl0.responseFromMemory.avg_buf_msgs     0.000556                       # Average number of messages in buffer
system.ruby.dir_cntrl0.responseFromMemory.avg_stall_time   499.999608                       # Average number of cycles messages are stalled in this MB
system.ruby.dir_cntrl1.net0From.avg_buf_msgs     0.005329                       # Average number of messages in buffer
system.ruby.dir_cntrl1.net0From.avg_stall_time  3100.894032                       # Average number of cycles messages are stalled in this MB
system.ruby.dir_cntrl1.net1From.avg_buf_msgs     0.000274                       # Average number of messages in buffer
system.ruby.dir_cntrl1.net1From.avg_stall_time  3001.096006                       # Average number of cycles messages are stalled in this MB
system.ruby.dir_cntrl1.net2From.avg_buf_msgs     0.002766                       # Average number of messages in buffer
system.ruby.dir_cntrl1.net2From.avg_stall_time  2999.991554                       # Average number of cycles messages are stalled in this MB
system.ruby.dir_cntrl1.reqTo.avg_buf_msgs     0.001028                       # Average number of messages in buffer
system.ruby.dir_cntrl1.reqTo.avg_stall_time  4407.688357                       # Average number of cycles messages are stalled in this MB
system.ruby.dir_cntrl1.requestToMemory.avg_buf_msgs     0.000565                       # Average number of messages in buffer
system.ruby.dir_cntrl1.requestToMemory.avg_stall_time   499.999996                       # Average number of cycles messages are stalled in this MB
system.ruby.dir_cntrl1.respTo.avg_buf_msgs     0.000002                       # Average number of messages in buffer
system.ruby.dir_cntrl1.respTo.avg_stall_time 14490.036606                       # Average number of cycles messages are stalled in this MB
system.ruby.dir_cntrl1.responseFromMemory.avg_buf_msgs     0.000566                       # Average number of messages in buffer
system.ruby.dir_cntrl1.responseFromMemory.avg_stall_time   499.999931                       # Average number of cycles messages are stalled in this MB
system.ruby.dir_cntrl2.net0From.avg_buf_msgs     0.008773                       # Average number of messages in buffer
system.ruby.dir_cntrl2.net0From.avg_stall_time  3177.829176                       # Average number of cycles messages are stalled in this MB
system.ruby.dir_cntrl2.net1From.avg_buf_msgs     0.000293                       # Average number of messages in buffer
system.ruby.dir_cntrl2.net1From.avg_stall_time  3003.051582                       # Average number of cycles messages are stalled in this MB
system.ruby.dir_cntrl2.net2From.avg_buf_msgs     0.002621                       # Average number of messages in buffer
system.ruby.dir_cntrl2.net2From.avg_stall_time  2999.979758                       # Average number of cycles messages are stalled in this MB
system.ruby.dir_cntrl2.reqTo.avg_buf_msgs     0.000972                       # Average number of messages in buffer
system.ruby.dir_cntrl2.reqTo.avg_stall_time  4316.998302                       # Average number of cycles messages are stalled in this MB
system.ruby.dir_cntrl2.requestToMemory.avg_buf_msgs     0.000536                       # Average number of messages in buffer
system.ruby.dir_cntrl2.requestToMemory.avg_stall_time   499.999997                       # Average number of cycles messages are stalled in this MB
system.ruby.dir_cntrl2.respTo.avg_buf_msgs     0.000001                       # Average number of messages in buffer
system.ruby.dir_cntrl2.respTo.avg_stall_time 14533.286750                       # Average number of cycles messages are stalled in this MB
system.ruby.dir_cntrl2.responseFromMemory.avg_buf_msgs     0.000536                       # Average number of messages in buffer
system.ruby.dir_cntrl2.responseFromMemory.avg_stall_time   499.999932                       # Average number of cycles messages are stalled in this MB
system.ruby.dir_cntrl3.net0From.avg_buf_msgs     0.009731                       # Average number of messages in buffer
system.ruby.dir_cntrl3.net0From.avg_stall_time  3209.308813                       # Average number of cycles messages are stalled in this MB
system.ruby.dir_cntrl3.net1From.avg_buf_msgs     0.000290                       # Average number of messages in buffer
system.ruby.dir_cntrl3.net1From.avg_stall_time  3004.760906                       # Average number of cycles messages are stalled in this MB
system.ruby.dir_cntrl3.net2From.avg_buf_msgs     0.002720                       # Average number of messages in buffer
system.ruby.dir_cntrl3.net2From.avg_stall_time  2999.990465                       # Average number of cycles messages are stalled in this MB
system.ruby.dir_cntrl3.reqTo.avg_buf_msgs     0.001006                       # Average number of messages in buffer
system.ruby.dir_cntrl3.reqTo.avg_stall_time  4399.085981                       # Average number of cycles messages are stalled in this MB
system.ruby.dir_cntrl3.requestToMemory.avg_buf_msgs     0.000552                       # Average number of messages in buffer
system.ruby.dir_cntrl3.requestToMemory.avg_stall_time   499.999916                       # Average number of cycles messages are stalled in this MB
system.ruby.dir_cntrl3.respTo.avg_buf_msgs     0.000001                       # Average number of messages in buffer
system.ruby.dir_cntrl3.respTo.avg_stall_time 15373.943021                       # Average number of cycles messages are stalled in this MB
system.ruby.dir_cntrl3.responseFromMemory.avg_buf_msgs     0.000552                       # Average number of messages in buffer
system.ruby.dir_cntrl3.responseFromMemory.avg_stall_time   499.999851                       # Average number of cycles messages are stalled in this MB
system.ruby.dma_cntrl0.cache.demand_accesses            0                       # Number of cache demand accesses
system.ruby.dma_cntrl0.cache.demand_hits            0                       # Number of cache demand hits
system.ruby.dma_cntrl0.cache.demand_misses            0                       # Number of cache demand misses
system.ruby.dma_cntrl0.fully_busy_cycles       366837                       # cycles for which number of transistions == max transitions
system.ruby.dma_cntrl0.mandatoryQueue.avg_buf_msgs     0.011081                       # Average number of messages in buffer
system.ruby.dma_cntrl0.mandatoryQueue.avg_stall_time 15856.577670                       # Average number of cycles messages are stalled in this MB
system.ruby.dma_cntrl0.net0From.avg_buf_msgs     0.000309                       # Average number of messages in buffer
system.ruby.dma_cntrl0.net0From.avg_stall_time 88017.762187                       # Average number of cycles messages are stalled in this MB
system.ruby.dma_cntrl0.net1From.avg_buf_msgs     0.000003                       # Average number of messages in buffer
system.ruby.dma_cntrl0.net1From.avg_stall_time 73697.238603                       # Average number of cycles messages are stalled in this MB
system.ruby.dma_cntrl0.net2From.avg_buf_msgs     0.000306                       # Average number of messages in buffer
system.ruby.dma_cntrl0.net2From.avg_stall_time  5325.015181                       # Average number of cycles messages are stalled in this MB
system.ruby.dma_cntrl0.reqTo.avg_buf_msgs     0.005618                       # Average number of messages in buffer
system.ruby.dma_cntrl0.reqTo.avg_stall_time   362.488538                       # Average number of cycles messages are stalled in this MB
system.ruby.dma_cntrl0.respFrom.avg_buf_msgs     0.000000                       # Average number of messages in buffer
system.ruby.dma_cntrl0.respFrom.avg_stall_time  9952.205518                       # Average number of cycles messages are stalled in this MB
system.ruby.dma_cntrl0.respTo.avg_buf_msgs     0.000001                       # Average number of messages in buffer
system.ruby.dma_cntrl0.respTo.avg_stall_time   362.866473                       # Average number of cycles messages are stalled in this MB
system.ruby.hit_latency_hist_seqr::bucket_size            1                      
system.ruby.hit_latency_hist_seqr::max_bucket            9                      
system.ruby.hit_latency_hist_seqr::samples   2008827404                      
system.ruby.hit_latency_hist_seqr        |  2008827404    100.00%    100.00% |           0      0.00%    100.00% |           0      0.00%    100.00% |           0      0.00%    100.00% |           0      0.00%    100.00% |           0      0.00%    100.00% |           0      0.00%    100.00% |           0      0.00%    100.00% |           0      0.00%    100.00% |           0      0.00%    100.00%
system.ruby.hit_latency_hist_seqr::total   2008827404                      
system.ruby.io_controller.cache.demand_accesses            0                       # Number of cache demand accesses
system.ruby.io_controller.cache.demand_hits            0                       # Number of cache demand hits
system.ruby.io_controller.cache.demand_misses            0                       # Number of cache demand misses
system.ruby.l1_cntrl0.cache.demand_accesses            0                       # Number of cache demand accesses
system.ruby.l1_cntrl0.cache.demand_hits             0                       # Number of cache demand hits
system.ruby.l1_cntrl0.cache.demand_misses            0                       # Number of cache demand misses
system.ruby.l1_cntrl0.fully_busy_cycles             7                       # cycles for which number of transistions == max transitions
system.ruby.l1_cntrl0.mandatoryQueue.avg_buf_msgs     0.405827                       # Average number of messages in buffer
system.ruby.l1_cntrl0.mandatoryQueue.avg_stall_time  1083.409164                       # Average number of cycles messages are stalled in this MB
system.ruby.l1_cntrl0.net0From.avg_buf_msgs     1.404493                       # Average number of messages in buffer
system.ruby.l1_cntrl0.net0From.avg_stall_time 15154.025621                       # Average number of cycles messages are stalled in this MB
system.ruby.l1_cntrl0.net1From.avg_buf_msgs     0.000048                       # Average number of messages in buffer
system.ruby.l1_cntrl0.net1From.avg_stall_time 16551.811245                       # Average number of cycles messages are stalled in this MB
system.ruby.l1_cntrl0.net2From.avg_buf_msgs     0.000416                       # Average number of messages in buffer
system.ruby.l1_cntrl0.net2From.avg_stall_time  6424.393000                       # Average number of cycles messages are stalled in this MB
system.ruby.l1_cntrl0.reqTo.avg_buf_msgs     0.000947                       # Average number of messages in buffer
system.ruby.l1_cntrl0.reqTo.avg_stall_time   499.999999                       # Average number of cycles messages are stalled in this MB
system.ruby.l1_cntrl0.respFrom.avg_buf_msgs     0.000007                       # Average number of messages in buffer
system.ruby.l1_cntrl0.respFrom.avg_stall_time 14704.321042                       # Average number of cycles messages are stalled in this MB
system.ruby.l1_cntrl0.respTo.avg_buf_msgs     0.000009                       # Average number of messages in buffer
system.ruby.l1_cntrl0.respTo.avg_stall_time   948.633458                       # Average number of cycles messages are stalled in this MB
system.ruby.l1_cntrl1.cache.demand_accesses            0                       # Number of cache demand accesses
system.ruby.l1_cntrl1.cache.demand_hits             0                       # Number of cache demand hits
system.ruby.l1_cntrl1.cache.demand_misses            0                       # Number of cache demand misses
system.ruby.l1_cntrl1.fully_busy_cycles             3                       # cycles for which number of transistions == max transitions
system.ruby.l1_cntrl1.mandatoryQueue.avg_buf_msgs     0.387708                       # Average number of messages in buffer
system.ruby.l1_cntrl1.mandatoryQueue.avg_stall_time   990.498783                       # Average number of cycles messages are stalled in this MB
system.ruby.l1_cntrl1.net0From.avg_buf_msgs     1.348329                       # Average number of messages in buffer
system.ruby.l1_cntrl1.net0From.avg_stall_time 15804.729870                       # Average number of cycles messages are stalled in this MB
system.ruby.l1_cntrl1.net1From.avg_buf_msgs     0.000036                       # Average number of messages in buffer
system.ruby.l1_cntrl1.net1From.avg_stall_time 16399.298870                       # Average number of cycles messages are stalled in this MB
system.ruby.l1_cntrl1.net2From.avg_buf_msgs     0.000357                       # Average number of messages in buffer
system.ruby.l1_cntrl1.net2From.avg_stall_time  6576.385751                       # Average number of cycles messages are stalled in this MB
system.ruby.l1_cntrl1.reqTo.avg_buf_msgs     0.000798                       # Average number of messages in buffer
system.ruby.l1_cntrl1.reqTo.avg_stall_time   499.998819                       # Average number of cycles messages are stalled in this MB
system.ruby.l1_cntrl1.respFrom.avg_buf_msgs     0.000004                       # Average number of messages in buffer
system.ruby.l1_cntrl1.respFrom.avg_stall_time 14470.687699                       # Average number of cycles messages are stalled in this MB
system.ruby.l1_cntrl1.respTo.avg_buf_msgs     0.000008                       # Average number of messages in buffer
system.ruby.l1_cntrl1.respTo.avg_stall_time   530.947493                       # Average number of cycles messages are stalled in this MB
system.ruby.l1_cntrl2.cache.demand_accesses            0                       # Number of cache demand accesses
system.ruby.l1_cntrl2.cache.demand_hits             0                       # Number of cache demand hits
system.ruby.l1_cntrl2.cache.demand_misses            0                       # Number of cache demand misses
system.ruby.l1_cntrl2.fully_busy_cycles             8                       # cycles for which number of transistions == max transitions
system.ruby.l1_cntrl2.mandatoryQueue.avg_buf_msgs     0.386812                       # Average number of messages in buffer
system.ruby.l1_cntrl2.mandatoryQueue.avg_stall_time  1029.103960                       # Average number of cycles messages are stalled in this MB
system.ruby.l1_cntrl2.net0From.avg_buf_msgs     0.000428                       # Average number of messages in buffer
system.ruby.l1_cntrl2.net0From.avg_stall_time 15777.914083                       # Average number of cycles messages are stalled in this MB
system.ruby.l1_cntrl2.net1From.avg_buf_msgs     0.000043                       # Average number of messages in buffer
system.ruby.l1_cntrl2.net1From.avg_stall_time 16650.808687                       # Average number of cycles messages are stalled in this MB
system.ruby.l1_cntrl2.net2From.avg_buf_msgs     0.000365                       # Average number of messages in buffer
system.ruby.l1_cntrl2.net2From.avg_stall_time  6511.406148                       # Average number of cycles messages are stalled in this MB
system.ruby.l1_cntrl2.reqTo.avg_buf_msgs     0.000833                       # Average number of messages in buffer
system.ruby.l1_cntrl2.reqTo.avg_stall_time   500.000095                       # Average number of cycles messages are stalled in this MB
system.ruby.l1_cntrl2.respFrom.avg_buf_msgs     0.000003                       # Average number of messages in buffer
system.ruby.l1_cntrl2.respFrom.avg_stall_time 14299.403749                       # Average number of cycles messages are stalled in this MB
system.ruby.l1_cntrl2.respTo.avg_buf_msgs     0.000008                       # Average number of messages in buffer
system.ruby.l1_cntrl2.respTo.avg_stall_time   516.828775                       # Average number of cycles messages are stalled in this MB
system.ruby.l1_cntrl3.cache.demand_accesses            0                       # Number of cache demand accesses
system.ruby.l1_cntrl3.cache.demand_hits             0                       # Number of cache demand hits
system.ruby.l1_cntrl3.cache.demand_misses            0                       # Number of cache demand misses
system.ruby.l1_cntrl3.fully_busy_cycles             4                       # cycles for which number of transistions == max transitions
system.ruby.l1_cntrl3.mandatoryQueue.avg_buf_msgs     0.394936                       # Average number of messages in buffer
system.ruby.l1_cntrl3.mandatoryQueue.avg_stall_time  1006.757871                       # Average number of cycles messages are stalled in this MB
system.ruby.l1_cntrl3.net0From.avg_buf_msgs     0.000411                       # Average number of messages in buffer
system.ruby.l1_cntrl3.net0From.avg_stall_time 16003.677844                       # Average number of cycles messages are stalled in this MB
system.ruby.l1_cntrl3.net1From.avg_buf_msgs     0.000039                       # Average number of messages in buffer
system.ruby.l1_cntrl3.net1From.avg_stall_time 16591.085804                       # Average number of cycles messages are stalled in this MB
system.ruby.l1_cntrl3.net2From.avg_buf_msgs     0.000362                       # Average number of messages in buffer
system.ruby.l1_cntrl3.net2From.avg_stall_time  6643.659949                       # Average number of cycles messages are stalled in this MB
system.ruby.l1_cntrl3.reqTo.avg_buf_msgs     0.000812                       # Average number of messages in buffer
system.ruby.l1_cntrl3.reqTo.avg_stall_time   499.999999                       # Average number of cycles messages are stalled in this MB
system.ruby.l1_cntrl3.respFrom.avg_buf_msgs     0.000004                       # Average number of messages in buffer
system.ruby.l1_cntrl3.respFrom.avg_stall_time 14925.793680                       # Average number of cycles messages are stalled in this MB
system.ruby.l1_cntrl3.respTo.avg_buf_msgs     0.000005                       # Average number of messages in buffer
system.ruby.l1_cntrl3.respTo.avg_stall_time   514.450028                       # Average number of cycles messages are stalled in this MB
system.ruby.latency_hist_seqr::bucket_size            1                      
system.ruby.latency_hist_seqr::max_bucket            9                      
system.ruby.latency_hist_seqr::samples     2011104038                      
system.ruby.latency_hist_seqr            |  2011104038    100.00%    100.00% |           0      0.00%    100.00% |           0      0.00%    100.00% |           0      0.00%    100.00% |           0      0.00%    100.00% |           0      0.00%    100.00% |           0      0.00%    100.00% |           0      0.00%    100.00% |           0      0.00%    100.00% |           0      0.00%    100.00%
system.ruby.latency_hist_seqr::total       2011104038                      
system.ruby.miss_latency_hist_seqr::bucket_size            1                      
system.ruby.miss_latency_hist_seqr::max_bucket            9                      
system.ruby.miss_latency_hist_seqr::samples      2276634                      
system.ruby.miss_latency_hist_seqr       |     2276634    100.00%    100.00% |           0      0.00%    100.00% |           0      0.00%    100.00% |           0      0.00%    100.00% |           0      0.00%    100.00% |           0      0.00%    100.00% |           0      0.00%    100.00% |           0      0.00%    100.00% |           0      0.00%    100.00% |           0      0.00%    100.00%
system.ruby.miss_latency_hist_seqr::total      2276634                      
system.ruby.network.average_flit_latency    26.161692                      
system.ruby.network.average_flit_network_latency    16.243049                      
system.ruby.network.average_flit_queueing_latency     9.918643                      
system.ruby.network.average_flit_vnet_latency |   23.048301                       |   15.799979                       |    5.059877                       |   15.812335                       |    6.755592                      
system.ruby.network.average_flit_vqueue_latency |   14.753694                       |    6.686747                       |    6.000003                       |    1.257049                       |    2.368700                      
system.ruby.network.average_hops             1.006114                      
system.ruby.network.average_packet_latency    18.734431                      
system.ruby.network.average_packet_network_latency    12.524467                      
system.ruby.network.average_packet_queueing_latency     6.209965                      
system.ruby.network.average_packet_vnet_latency |   31.021767                       |   25.810457                       |    5.059877                       |   25.832422                       |    5.819754                      
system.ruby.network.average_packet_vqueue_latency |   14.192073                       |    6.686744                       |    6.000003                       |    1.257049                       |    2.247973                      
system.ruby.network.avg_link_utilization     0.050965                      
system.ruby.network.avg_vc_load          |    0.019183     37.64%     37.64% |    0.003160      6.20%     43.84% |    0.003141      6.16%     50.00% |    0.003108      6.10%     56.10% |    0.001891      3.71%     59.81% |    0.000219      0.43%     60.24% |    0.000218      0.43%     60.67% |    0.000217      0.43%     61.09% |    0.003800      7.46%     68.55% |    0.000606      1.19%     69.74% |    0.000518      1.02%     70.75% |    0.000497      0.98%     71.73% |    0.000279      0.55%     72.28% |    0.000071      0.14%     72.42% |    0.000037      0.07%     72.49% |    0.000031      0.06%     72.55% |    0.010053     19.73%     92.27% |    0.001579      3.10%     95.37% |    0.001194      2.34%     97.71% |    0.001165      2.29%    100.00%
system.ruby.network.avg_vc_load::total       0.050965                      
system.ruby.network.ext_in_link_utilization     22191106                      
system.ruby.network.ext_out_link_utilization     22191106                      
system.ruby.network.flit_network_latency |   287258239                       |    17498888                       |    11956974                       |     2559938                       |    41177186                      
system.ruby.network.flit_queueing_latency |   183879933                       |     7405746                       |    14178583                       |      203510                       |    14437876                      
system.ruby.network.flits_injected       |    12463315     56.16%     56.16% |     1107526      4.99%     61.15% |     2363096     10.65%     71.80% |      161895      0.73%     72.53% |     6095274     27.47%    100.00%
system.ruby.network.flits_injected::total     22191106                      
system.ruby.network.flits_received       |    12463315     56.16%     56.16% |     1107526      4.99%     61.15% |     2363096     10.65%     71.80% |      161895      0.73%     72.53% |     6095274     27.47%    100.00%
system.ruby.network.flits_received::total     22191106                      
system.ruby.network.int_link_utilization     22326792                      
system.ruby.network.packet_network_latency |    82899066                       |     5717171                       |    11956974                       |      836428                       |    30523017                      
system.ruby.network.packet_queueing_latency |    37925293                       |     1481154                       |    14178583                       |       40702                       |    11790000                      
system.ruby.network.packets_injected     |     2672287     25.37%     25.37% |      221506      2.10%     27.47% |     2363096     22.43%     49.90% |       32379      0.31%     50.21% |     5244726     49.79%    100.00%
system.ruby.network.packets_injected::total     10533994                      
system.ruby.network.packets_received     |     2672287     25.37%     25.37% |      221506      2.10%     27.47% |     2363096     22.43%     49.90% |       32379      0.31%     50.21% |     5244726     49.79%    100.00%
system.ruby.network.packets_received::total     10533994                      
system.ruby.network.routers0.buffer_reads     13173983                      
system.ruby.network.routers0.buffer_writes     13173983                      
system.ruby.network.routers0.crossbar_activity     13173983                      
system.ruby.network.routers0.sw_input_arbiter_activity     14212370                      
system.ruby.network.routers0.sw_output_arbiter_activity     13173983                      
system.ruby.network.routers1.buffer_reads     10430070                      
system.ruby.network.routers1.buffer_writes     10430070                      
system.ruby.network.routers1.crossbar_activity     10430070                      
system.ruby.network.routers1.sw_input_arbiter_activity     10434888                      
system.ruby.network.routers1.sw_output_arbiter_activity     10430070                      
system.ruby.network.routers2.buffer_reads     10824599                      
system.ruby.network.routers2.buffer_writes     10824599                      
system.ruby.network.routers2.crossbar_activity     10824599                      
system.ruby.network.routers2.sw_input_arbiter_activity     11045425                      
system.ruby.network.routers2.sw_output_arbiter_activity     10824599                      
system.ruby.network.routers3.buffer_reads     10089246                      
system.ruby.network.routers3.buffer_writes     10089246                      
system.ruby.network.routers3.crossbar_activity     10089246                      
system.ruby.network.routers3.sw_input_arbiter_activity     10092816                      
system.ruby.network.routers3.sw_output_arbiter_activity     10089246                      
system.ruby.outstanding_req_hist_seqr::bucket_size            1                      
system.ruby.outstanding_req_hist_seqr::max_bucket            9                      
system.ruby.outstanding_req_hist_seqr::samples   2011104038                      
system.ruby.outstanding_req_hist_seqr::mean     1.002425                      
system.ruby.outstanding_req_hist_seqr::gmean     1.001683                      
system.ruby.outstanding_req_hist_seqr::stdev     0.049188                      
system.ruby.outstanding_req_hist_seqr    |           0      0.00%      0.00% |  2006226405     99.76%     99.76% |     4877633      0.24%    100.00% |           0      0.00%    100.00% |           0      0.00%    100.00% |           0      0.00%    100.00% |           0      0.00%    100.00% |           0      0.00%    100.00% |           0      0.00%    100.00% |           0      0.00%    100.00%
system.ruby.outstanding_req_hist_seqr::total   2011104038                      
system.switch_cpus0.Branches                  5107979                       # Number of branches fetched
system.switch_cpus0.committedInsts          269084544                       # Number of instructions committed
system.switch_cpus0.committedOps            454934702                       # Number of ops (including micro ops) committed
system.switch_cpus0.dtb.rdAccesses           84426732                       # TLB accesses on read requests
system.switch_cpus0.dtb.rdMisses                68805                       # TLB misses on read requests
system.switch_cpus0.dtb.wrAccesses           28757141                       # TLB accesses on write requests
system.switch_cpus0.dtb.wrMisses                 3887                       # TLB misses on write requests
system.switch_cpus0.idle_fraction            0.148801                       # Percentage of idle cycles
system.switch_cpus0.itb.rdAccesses                  0                       # TLB accesses on read requests
system.switch_cpus0.itb.rdMisses                    0                       # TLB misses on read requests
system.switch_cpus0.itb.wrAccesses          403608455                       # TLB accesses on write requests
system.switch_cpus0.itb.wrMisses                 3427                       # TLB misses on write requests
system.switch_cpus0.kern.inst.arm                   0                       # number of arm instructions executed
system.switch_cpus0.kern.inst.quiesce               0                       # number of quiesce instructions executed
system.switch_cpus0.not_idle_fraction        0.851199                       # Percentage of non-idle cycles
system.switch_cpus0.numCycles              1308873678                       # number of cpu cycles simulated
system.switch_cpus0.numWorkItemsCompleted            0                       # number of work items this cpu completed
system.switch_cpus0.numWorkItemsStarted             0                       # number of work items this cpu started
system.switch_cpus0.num_busy_cycles      1114112135.289963                       # Number of busy cycles
system.switch_cpus0.num_cc_register_reads    140661486                       # number of times the CC registers were read
system.switch_cpus0.num_cc_register_writes     93720269                       # number of times the CC registers were written
system.switch_cpus0.num_conditional_control_insts      4149964                       # number of instructions that are conditional controls
system.switch_cpus0.num_fp_alu_accesses     347283536                       # Number of float alu accesses
system.switch_cpus0.num_fp_insts            347283536                       # number of float instructions
system.switch_cpus0.num_fp_register_reads    425848567                       # number of times the floating registers were read
system.switch_cpus0.num_fp_register_writes    313910299                       # number of times the floating registers were written
system.switch_cpus0.num_func_calls             569055                       # number of times a function call or return occured
system.switch_cpus0.num_idle_cycles      194761542.710037                       # Number of idle cycles
system.switch_cpus0.num_int_alu_accesses    207096769                       # Number of integer alu accesses
[...]
system.mem_ctrls1.llc.WriteReq_accesses::.ruby.dir_cntrl1        56602                       # number of WriteReq accesses(hits+misses)
system.mem_ctrls1.llc.WriteReq_accesses::total        56602                       # number of WriteReq accesses(hits+misses)
system.mem_ctrls1.llc.power_state.pwrStateResidencyTicks::UNDEFINED 110526426488001                       # Cumulative time (in ticks) in various power states
system.mem_ctrls1.llc.tags.tagsinuse     129328.574921                       # Cycle average of tags in use
system.mem_ctrls1.llc.tags.total_refs            8605                       # Total number of references to valid blocks.
system.mem_ctrls1.llc.tags.sampled_refs          6305                       # Sample count of references to valid blocks.
system.mem_ctrls1.llc.tags.avg_refs          1.364790                       # Average number of references to valid blocks.
system.mem_ctrls1.llc.tags.warmup_cycle  109871971931500                       # Cycle when the warmup percentage was hit.
system.mem_ctrls1.llc.tags.occ_blocks::.ruby.dir_cntrl1 129328.574921                       # Average occupied blocks per requestor
system.mem_ctrls1.llc.tags.occ_percent::.ruby.dir_cntrl1     0.493349                       # Average percentage of cache occupancy
system.mem_ctrls1.llc.tags.occ_percent::total     0.493349                       # Average percentage of cache occupancy
system.mem_ctrls1.llc.tags.occ_task_id_blocks::1024       188589                       # Occupied blocks per task id
system.mem_ctrls1.llc.tags.age_task_id_blocks_1024::0           10                       # Occupied blocks per task id
system.mem_ctrls1.llc.tags.age_task_id_blocks_1024::1            1                       # Occupied blocks per task id
system.mem_ctrls1.llc.tags.age_task_id_blocks_1024::2           41                       # Occupied blocks per task id
system.mem_ctrls1.llc.tags.age_task_id_blocks_1024::3          121                       # Occupied blocks per task id
system.mem_ctrls1.llc.tags.age_task_id_blocks_1024::4       188416                       # Occupied blocks per task id
system.mem_ctrls1.llc.tags.occ_task_id_percent::1024     0.719410                       # Percentage of cache occupancy per task id
system.mem_ctrls1.llc.tags.tag_accesses      12031886                       # Number of tag accesses
system.mem_ctrls1.llc.tags.data_accesses       739812                       # Number of data accesses
system.mem_ctrls1.llc.tags.power_state.pwrStateResidencyTicks::UNDEFINED 110526426488001                       # Cumulative time (in ticks) in various power states
system.mem_ctrls1.rank1.actEnergy           308883540                       # Energy for activate commands per rank (pJ)
system.mem_ctrls1.rank1.preEnergy           164167905                       # Energy for precharge commands per rank (pJ)
system.mem_ctrls1.rank1.readEnergy          692451480                       # Energy for read commands per rank (pJ)
system.mem_ctrls1.rank1.writeEnergy            741240                       # Energy for write commands per rank (pJ)
system.mem_ctrls1.rank1.refreshEnergy    51661721280.000008                       # Energy for refresh commands per rank (pJ)
system.mem_ctrls1.rank1.actBackEnergy     64883480760                       # Energy for active background per rank (pJ)
system.mem_ctrls1.rank1.preBackEnergy    196671052320                       # Energy for precharge background per rank (pJ)
system.mem_ctrls1.rank1.actPowerDownEnergy            0                       # Energy for active power-down per rank (pJ)
system.mem_ctrls1.rank1.prePowerDownEnergy            0                       # Energy for precharge power-down per rank (pJ)
system.mem_ctrls1.rank1.selfRefreshEnergy            0                       # Energy for self refresh per rank (pJ)
system.mem_ctrls1.rank1.totalEnergy      314382498525                       # Total energy per rank (pJ)
system.mem_ctrls1.rank1.averagePower       480.373255                       # Core power per rank (mW)
system.mem_ctrls1.rank1.totalIdleTime               0                       # Total Idle time Per DRAM Rank
system.mem_ctrls1.rank1.memoryStateTime::IDLE 510573305750                       # Time in different power states
system.mem_ctrls1.rank1.memoryStateTime::REF  21853520000                       # Time in different power states
system.mem_ctrls1.rank1.memoryStateTime::SREF            0                       # Time in different power states
system.mem_ctrls1.rank1.memoryStateTime::PRE_PDN            0                       # Time in different power states
system.mem_ctrls1.rank1.memoryStateTime::ACT 122027799751                       # Time in different power states
system.mem_ctrls1.rank1.memoryStateTime::ACT_PDN            0                       # Time in different power states
system.mem_ctrls1.rank0.actEnergy           316837500                       # Energy for activate commands per rank (pJ)
system.mem_ctrls1.rank0.preEnergy           168399330                       # Energy for precharge commands per rank (pJ)
system.mem_ctrls1.rank0.readEnergy          698770380                       # Energy for read commands per rank (pJ)
system.mem_ctrls1.rank0.writeEnergy            495900                       # Energy for write commands per rank (pJ)
system.mem_ctrls1.rank0.refreshEnergy    51661721280.000008                       # Energy for refresh commands per rank (pJ)
system.mem_ctrls1.rank0.actBackEnergy     66423969600                       # Energy for active background per rank (pJ)
system.mem_ctrls1.rank0.preBackEnergy    195374595360                       # Energy for precharge background per rank (pJ)
system.mem_ctrls1.rank0.actPowerDownEnergy            0                       # Energy for active power-down per rank (pJ)
system.mem_ctrls1.rank0.prePowerDownEnergy            0                       # Energy for precharge power-down per rank (pJ)
system.mem_ctrls1.rank0.selfRefreshEnergy            0                       # Energy for self refresh per rank (pJ)
system.mem_ctrls1.rank0.totalEnergy      314644789350                       # Total energy per rank (pJ)
system.mem_ctrls1.rank0.averagePower       480.774032                       # Core power per rank (mW)
system.mem_ctrls1.rank0.totalIdleTime               0                       # Total Idle time Per DRAM Rank
system.mem_ctrls1.rank0.memoryStateTime::IDLE 507180926501                       # Time in different power states
system.mem_ctrls1.rank0.memoryStateTime::REF  21853520000                       # Time in different power states
system.mem_ctrls1.rank0.memoryStateTime::SREF            0                       # Time in different power states
system.mem_ctrls1.rank0.memoryStateTime::PRE_PDN            0                       # Time in different power states
system.mem_ctrls1.rank0.memoryStateTime::ACT 125420179000                       # Time in different power states
system.mem_ctrls1.rank0.memoryStateTime::ACT_PDN            0                       # Time in different power states
system.mem_ctrls1.power_state.pwrStateResidencyTicks::UNDEFINED 110526426488001                       # Cumulative time (in ticks) in various power states
system.cpu_voltage_domain.voltage                   1                       # Voltage in Volts
system.iobus.trans_dist::ReadReq                 2178                       # Transaction distribution
system.iobus.trans_dist::ReadResp                2178                       # Transaction distribution
system.iobus.trans_dist::WriteReq                6585                       # Transaction distribution
system.iobus.trans_dist::WriteResp               6585                       # Transaction distribution
system.iobus.pkt_count_system.pc.south_bridge.io_apic.int_master::system.ruby.l1_cntrl1.sequencer.pio-slave-port          762                       # Packet count per connected master and slave (bytes)
system.iobus.pkt_count_system.pc.south_bridge.io_apic.int_master::total          762                       # Packet count per connected master and slave (bytes)
system.iobus.pkt_count_system.ruby.l1_cntrl0.sequencer.mem-master-port::system.pc.south_bridge.ide.pio          748                       # Packet count per connected master and slave (bytes)
system.iobus.pkt_count_system.ruby.l1_cntrl0.sequencer.mem-master-port::system.ruby.l1_cntrl0.sequencer.pio-slave-port         1340                       # Packet count per connected master and slave (bytes)
system.iobus.pkt_count_system.ruby.l1_cntrl0.sequencer.mem-master-port::system.ruby.l1_cntrl1.sequencer.pio-slave-port            4                       # Packet count per connected master and slave (bytes)
system.iobus.pkt_count_system.ruby.l1_cntrl0.sequencer.mem-master-port::system.ruby.l1_cntrl2.sequencer.pio-slave-port            2                       # Packet count per connected master and slave (bytes)
system.iobus.pkt_count_system.ruby.l1_cntrl0.sequencer.mem-master-port::total         2094                       # Packet count per connected master and slave (bytes)
system.iobus.pkt_count_system.ruby.l1_cntrl1.sequencer.mem-master-port::system.pc.south_bridge.ide.pio         4952                       # Packet count per connected master and slave (bytes)
system.iobus.pkt_count_system.ruby.l1_cntrl1.sequencer.mem-master-port::system.pc.com_1.pio         1436                       # Packet count per connected master and slave (bytes)
system.iobus.pkt_count_system.ruby.l1_cntrl1.sequencer.mem-master-port::system.ruby.l1_cntrl0.sequencer.pio-slave-port            2                       # Packet count per connected master and slave (bytes)
system.iobus.pkt_count_system.ruby.l1_cntrl1.sequencer.mem-master-port::system.ruby.l1_cntrl1.sequencer.pio-slave-port         1824                       # Packet count per connected master and slave (bytes)
system.iobus.pkt_count_system.ruby.l1_cntrl1.sequencer.mem-master-port::system.ruby.l1_cntrl2.sequencer.pio-slave-port            8                       # Packet count per connected master and slave (bytes)
system.iobus.pkt_count_system.ruby.l1_cntrl1.sequencer.mem-master-port::system.ruby.l1_cntrl3.sequencer.pio-slave-port            8                       # Packet count per connected master and slave (bytes)
system.iobus.pkt_count_system.ruby.l1_cntrl1.sequencer.mem-master-port::total         8230                       # Packet count per connected master and slave (bytes)
system.iobus.pkt_count_system.ruby.l1_cntrl2.sequencer.mem-master-port::system.pc.south_bridge.ide.pio         3230                       # Packet count per connected master and slave (bytes)
system.iobus.pkt_count_system.ruby.l1_cntrl2.sequencer.mem-master-port::system.ruby.l1_cntrl0.sequencer.pio-slave-port            8                       # Packet count per connected master and slave (bytes)
system.iobus.pkt_count_system.ruby.l1_cntrl2.sequencer.mem-master-port::system.ruby.l1_cntrl1.sequencer.pio-slave-port            8                       # Packet count per connected master and slave (bytes)
system.iobus.pkt_count_system.ruby.l1_cntrl2.sequencer.mem-master-port::system.ruby.l1_cntrl2.sequencer.pio-slave-port         1420                       # Packet count per connected master and slave (bytes)
system.iobus.pkt_count_system.ruby.l1_cntrl2.sequencer.mem-master-port::system.ruby.l1_cntrl3.sequencer.pio-slave-port           14                       # Packet count per connected master and slave (bytes)
system.iobus.pkt_count_system.ruby.l1_cntrl2.sequencer.mem-master-port::total         4680                       # Packet count per connected master and slave (bytes)
system.iobus.pkt_count_system.ruby.l1_cntrl3.sequencer.mem-master-port::system.pc.south_bridge.ide.pio          408                       # Packet count per connected master and slave (bytes)
system.iobus.pkt_count_system.ruby.l1_cntrl3.sequencer.mem-master-port::system.ruby.l1_cntrl2.sequencer.pio-slave-port            4                       # Packet count per connected master and slave (bytes)
system.iobus.pkt_count_system.ruby.l1_cntrl3.sequencer.mem-master-port::system.ruby.l1_cntrl3.sequencer.pio-slave-port         1348                       # Packet count per connected master and slave (bytes)
system.iobus.pkt_count_system.ruby.l1_cntrl3.sequencer.mem-master-port::total         1760                       # Packet count per connected master and slave (bytes)
system.iobus.pkt_count::total                   17526                       # Packet count per connected master and slave (bytes)
system.iobus.pkt_size_system.pc.south_bridge.io_apic.int_master::system.ruby.l1_cntrl1.sequencer.pio-slave-port         1524                       # Cumulative packet size per connected master and slave (bytes)
system.iobus.pkt_size_system.pc.south_bridge.io_apic.int_master::total         1524                       # Cumulative packet size per connected master and slave (bytes)
system.iobus.pkt_size_system.ruby.l1_cntrl0.sequencer.mem-master-port::system.pc.south_bridge.ide.pio          440                       # Cumulative packet size per connected master and slave (bytes)
system.iobus.pkt_size_system.ruby.l1_cntrl0.sequencer.mem-master-port::system.ruby.l1_cntrl0.sequencer.pio-slave-port         2680                       # Cumulative packet size per connected master and slave (bytes)
system.iobus.pkt_size_system.ruby.l1_cntrl0.sequencer.mem-master-port::system.ruby.l1_cntrl1.sequencer.pio-slave-port            8                       # Cumulative packet size per connected master and slave (bytes)
system.iobus.pkt_size_system.ruby.l1_cntrl0.sequencer.mem-master-port::system.ruby.l1_cntrl2.sequencer.pio-slave-port            4                       # Cumulative packet size per connected master and slave (bytes)
system.iobus.pkt_size_system.ruby.l1_cntrl0.sequencer.mem-master-port::total         3132                       # Cumulative packet size per connected master and slave (bytes)
system.iobus.pkt_size_system.ruby.l1_cntrl1.sequencer.mem-master-port::system.pc.south_bridge.ide.pio         2698                       # Cumulative packet size per connected master and slave (bytes)
system.iobus.pkt_size_system.ruby.l1_cntrl1.sequencer.mem-master-port::system.pc.com_1.pio          718                       # Cumulative packet size per connected master and slave (bytes)
system.iobus.pkt_size_system.ruby.l1_cntrl1.sequencer.mem-master-port::system.ruby.l1_cntrl0.sequencer.pio-slave-port            4                       # Cumulative packet size per connected master and slave (bytes)
system.iobus.pkt_size_system.ruby.l1_cntrl1.sequencer.mem-master-port::system.ruby.l1_cntrl1.sequencer.pio-slave-port         3648                       # Cumulative packet size per connected master and slave (bytes)
system.iobus.pkt_size_system.ruby.l1_cntrl1.sequencer.mem-master-port::system.ruby.l1_cntrl2.sequencer.pio-slave-port           16                       # Cumulative packet size per connected master and slave (bytes)
system.iobus.pkt_size_system.ruby.l1_cntrl1.sequencer.mem-master-port::system.ruby.l1_cntrl3.sequencer.pio-slave-port           16                       # Cumulative packet size per connected master and slave (bytes)
system.iobus.pkt_size_system.ruby.l1_cntrl1.sequencer.mem-master-port::total         7100                       # Cumulative packet size per connected master and slave (bytes)
system.iobus.pkt_size_system.ruby.l1_cntrl2.sequencer.mem-master-port::system.pc.south_bridge.ide.pio         1900                       # Cumulative packet size per connected master and slave (bytes)
system.iobus.pkt_size_system.ruby.l1_cntrl2.sequencer.mem-master-port::system.ruby.l1_cntrl0.sequencer.pio-slave-port           16                       # Cumulative packet size per connected master and slave (bytes)
system.iobus.pkt_size_system.ruby.l1_cntrl2.sequencer.mem-master-port::system.ruby.l1_cntrl1.sequencer.pio-slave-port           16                       # Cumulative packet size per connected master and slave (bytes)
system.iobus.pkt_size_system.ruby.l1_cntrl2.sequencer.mem-master-port::system.ruby.l1_cntrl2.sequencer.pio-slave-port         2840                       # Cumulative packet size per connected master and slave (bytes)
system.iobus.pkt_size_system.ruby.l1_cntrl2.sequencer.mem-master-port::system.ruby.l1_cntrl3.sequencer.pio-slave-port           28                       # Cumulative packet size per connected master and slave (bytes)
system.iobus.pkt_size_system.ruby.l1_cntrl2.sequencer.mem-master-port::total         4800                       # Cumulative packet size per connected master and slave (bytes)
system.iobus.pkt_size_system.ruby.l1_cntrl3.sequencer.mem-master-port::system.pc.south_bridge.ide.pio          240                       # Cumulative packet size per connected master and slave (bytes)
system.iobus.pkt_size_system.ruby.l1_cntrl3.sequencer.mem-master-port::system.ruby.l1_cntrl2.sequencer.pio-slave-port            8                       # Cumulative packet size per connected master and slave (bytes)
system.iobus.pkt_size_system.ruby.l1_cntrl3.sequencer.mem-master-port::system.ruby.l1_cntrl3.sequencer.pio-slave-port         2696                       # Cumulative packet size per connected master and slave (bytes)
system.iobus.pkt_size_system.ruby.l1_cntrl3.sequencer.mem-master-port::total         2944                       # Cumulative packet size per connected master and slave (bytes)
system.iobus.pkt_size::total                    19500                       # Cumulative packet size per connected master and slave (bytes)
system.iobus.reqLayer2.occupancy              7808000                       # Layer occupancy (ticks)
system.iobus.reqLayer2.utilization                0.0                       # Layer utilization (%)
system.iobus.power_state.pwrStateResidencyTicks::UNDEFINED 110526426488001                       # Cumulative time (in ticks) in various power states
system.iobus.reqLayer19.occupancy             1689473                       # Layer occupancy (ticks)
system.iobus.reqLayer19.utilization               0.0                       # Layer utilization (%)
system.iobus.reqLayer17.occupancy             1628944                       # Layer occupancy (ticks)
system.iobus.reqLayer17.utilization               0.0                       # Layer utilization (%)
system.iobus.reqLayer12.occupancy              915000                       # Layer occupancy (ticks)
system.iobus.reqLayer12.utilization               0.0                       # Layer utilization (%)
system.iobus.reqLayer18.occupancy             3004770                       # Layer occupancy (ticks)
system.iobus.reqLayer18.utilization               0.0                       # Layer utilization (%)
system.iobus.respLayer9.occupancy             1267000                       # Layer occupancy (ticks)
system.iobus.respLayer9.utilization               0.0                       # Layer utilization (%)
system.iobus.respLayer5.occupancy             6214000                       # Layer occupancy (ticks)
system.iobus.respLayer5.utilization               0.0                       # Layer utilization (%)
system.iobus.respLayer7.occupancy             3090000                       # Layer occupancy (ticks)
system.iobus.respLayer7.utilization               0.0                       # Layer utilization (%)
system.iobus.respLayer0.occupancy              626797                       # Layer occupancy (ticks)
system.iobus.respLayer0.utilization               0.0                       # Layer utilization (%)
system.iobus.respLayer3.occupancy             1472000                       # Layer occupancy (ticks)
system.iobus.respLayer3.utilization               0.0                       # Layer utilization (%)
system.iobus.reqLayer20.occupancy             1648452                       # Layer occupancy (ticks)
system.iobus.reqLayer20.utilization               0.0                       # Layer utilization (%)

---------- End Simulation Statistics   ----------
