
---------- Begin Simulation Statistics ----------
final_tick                               110193220720001                       # Number of ticks from beginning of simulation (restored from checkpoints and never reset)
host_inst_rate                                 385821                       # Simulator instruction rate (inst/s)
host_mem_usage                                1887180                       # Number of bytes of host memory used
host_op_rate                                   675184                       # Simulator op (including micro ops) rate (op/s)
host_seconds                                 69637.54                       # Real time elapsed on the host
host_tick_rate                              176699264                       # Simulator tick rate (ticks/s)
sim_freq                                 1000000000000                       # Frequency of simulated ticks
sim_insts                                 26867607758                       # Number of instructions simulated
sim_ops                                   47018152075                       # Number of ops (including micro ops) simulated
sim_seconds                                 12.304902                       # Number of seconds simulated
sim_ticks                                12304901555501                       # Number of ticks simulated
system.cpu0.committedInsts                          0                       # Number of instructions committed
system.cpu0.dtb.rdAccesses                          0                       # TLB accesses on read requests
system.cpu0.dtb.rdMisses                            0                       # TLB misses on read requests
system.cpu0.dtb.wrAccesses                          0                       # TLB accesses on write requests
system.cpu0.dtb.wrMisses                            0                       # TLB misses on write requests
system.cpu0.itb.rdAccesses                          0                       # TLB accesses on read requests
system.cpu0.itb.rdMisses                            0                       # TLB misses on read requests
system.cpu0.itb.wrAccesses                          0                       # TLB accesses on write requests
system.cpu0.itb.wrMisses                            0                       # TLB misses on write requests
system.cpu0.kern.inst.arm                           0                       # number of arm instructions executed
system.cpu0.kern.inst.quiesce                       0                       # number of quiesce instructions executed
system.cpu0.numCoalescedMMIO                        0                       # number of coalesced memory mapped IO requests
system.cpu0.numCycles                               0                       # number of cpu cycles simulated
system.cpu0.numExitSignal                           0                       # exits due to signal delivery
system.cpu0.numHalt                                 0                       # number of VM exits due to wait for interrupt instructions
system.cpu0.numHypercalls                           0                       # number of hypercalls
system.cpu0.numIO                                   0                       # number of VM exits due to legacy IO
system.cpu0.numInterrupts                           0                       # number of interrupts delivered
system.cpu0.numMMIO                                 0                       # number of VM exits due to memory mapped IO
system.cpu0.numVMExits                              0                       # total number of KVM exits
system.cpu0.numVMHalfEntries                        0                       # number of KVM entries to finalize pending operations
system.cpu0.numWorkItemsCompleted                   0                       # number of work items this cpu completed
system.cpu0.numWorkItemsStarted                     0                       # number of work items this cpu started
system.cpu1.committedInsts                          0                       # Number of instructions committed
system.cpu1.dtb.rdAccesses                          0                       # TLB accesses on read requests
system.cpu1.dtb.rdMisses                            0                       # TLB misses on read requests
system.cpu1.dtb.wrAccesses                          0                       # TLB accesses on write requests
system.cpu1.dtb.wrMisses                            0                       # TLB misses on write requests
system.cpu1.itb.rdAccesses                          0                       # TLB accesses on read requests
system.cpu1.itb.rdMisses                            0                       # TLB misses on read requests
system.cpu1.itb.wrAccesses                          0                       # TLB accesses on write requests
system.cpu1.itb.wrMisses                            0                       # TLB misses on write requests
system.cpu1.kern.inst.arm                           0                       # number of arm instructions executed
system.cpu1.kern.inst.quiesce                       0                       # number of quiesce instructions executed
system.cpu1.numCoalescedMMIO                        0                       # number of coalesced memory mapped IO requests
system.cpu1.numCycles                               0                       # number of cpu cycles simulated
system.cpu1.numExitSignal                           0                       # exits due to signal delivery
system.cpu1.numHalt                                 0                       # number of VM exits due to wait for interrupt instructions
system.cpu1.numHypercalls                           0                       # number of hypercalls
system.cpu1.numIO                                   0                       # number of VM exits due to legacy IO
system.cpu1.numInterrupts                           0                       # number of interrupts delivered
system.cpu1.numMMIO                                 0                       # number of VM exits due to memory mapped IO
system.cpu1.numVMExits                              0                       # total number of KVM exits
system.cpu1.numVMHalfEntries                        0                       # number of KVM entries to finalize pending operations
system.cpu1.numWorkItemsCompleted                   0                       # number of work items this cpu completed
system.cpu1.numWorkItemsStarted                     0                       # number of work items this cpu started
system.cpu2.committedInsts                          0                       # Number of instructions committed
system.cpu2.dtb.rdAccesses                          0                       # TLB accesses on read requests
system.cpu2.dtb.rdMisses                            0                       # TLB misses on read requests
system.cpu2.dtb.wrAccesses                          0                       # TLB accesses on write requests
system.cpu2.dtb.wrMisses                            0                       # TLB misses on write requests
system.cpu2.itb.rdAccesses                          0                       # TLB accesses on read requests
system.cpu2.itb.rdMisses                            0                       # TLB misses on read requests
system.cpu2.itb.wrAccesses                          0                       # TLB accesses on write requests
system.cpu2.itb.wrMisses                            0                       # TLB misses on write requests
system.cpu2.kern.inst.arm                           0                       # number of arm instructions executed
system.cpu2.kern.inst.quiesce                       0                       # number of quiesce instructions executed
system.cpu2.numCoalescedMMIO                        0                       # number of coalesced memory mapped IO requests
system.cpu2.numCycles                               0                       # number of cpu cycles simulated
system.cpu2.numExitSignal                           0                       # exits due to signal delivery
system.cpu2.numHalt                                 0                       # number of VM exits due to wait for interrupt instructions
system.cpu2.numHypercalls                           0                       # number of hypercalls
system.cpu2.numIO                                   0                       # number of VM exits due to legacy IO
system.cpu2.numInterrupts                           0                       # number of interrupts delivered
system.cpu2.numMMIO                                 0                       # number of VM exits due to memory mapped IO
system.cpu2.numVMExits                              0                       # total number of KVM exits
system.cpu2.numVMHalfEntries                        0                       # number of KVM entries to finalize pending operations
system.cpu2.numWorkItemsCompleted                   0                       # number of work items this cpu completed
system.cpu2.numWorkItemsStarted                     0                       # number of work items this cpu started
system.cpu3.committedInsts                          0                       # Number of instructions committed
system.cpu3.dtb.rdAccesses                          0                       # TLB accesses on read requests
system.cpu3.dtb.rdMisses                            0                       # TLB misses on read requests
system.cpu3.dtb.wrAccesses                          0                       # TLB accesses on write requests
system.cpu3.dtb.wrMisses                            0                       # TLB misses on write requests
system.cpu3.itb.rdAccesses                          0                       # TLB accesses on read requests
system.cpu3.itb.rdMisses                            0                       # TLB misses on read requests
system.cpu3.itb.wrAccesses                          0                       # TLB accesses on write requests
system.cpu3.itb.wrMisses                            0                       # TLB misses on write requests
system.cpu3.kern.inst.arm                           0                       # number of arm instructions executed
system.cpu3.kern.inst.quiesce                       0                       # number of quiesce instructions executed
system.cpu3.numCoalescedMMIO                        0                       # number of coalesced memory mapped IO requests
system.cpu3.numCycles                               0                       # number of cpu cycles simulated
system.cpu3.numExitSignal                           0                       # exits due to signal delivery
system.cpu3.numHalt                                 0                       # number of VM exits due to wait for interrupt instructions
system.cpu3.numHypercalls                           0                       # number of hypercalls
system.cpu3.numIO                                   0                       # number of VM exits due to legacy IO
system.cpu3.numInterrupts                           0                       # number of interrupts delivered
system.cpu3.numMMIO                                 0                       # number of VM exits due to memory mapped IO
system.cpu3.numVMExits                              0                       # total number of KVM exits
system.cpu3.numVMHalfEntries                        0                       # number of KVM entries to finalize pending operations
system.cpu3.numWorkItemsCompleted                   0                       # number of work items this cpu completed
system.cpu3.numWorkItemsStarted                     0                       # number of work items this cpu started
system.pc.south_bridge.ide.disks.dma_read_bytes      1794048                       # Number of bytes transfered via DMA reads (not PRD).
system.pc.south_bridge.ide.disks.dma_read_full_pages          438                       # Number of full page size DMA reads (not PRD).
system.pc.south_bridge.ide.disks.dma_read_txs          438                       # Number of DMA read transactions (not PRD).
system.pc.south_bridge.ide.disks.dma_write_bytes        16384                       # Number of bytes transfered via DMA writes.
system.pc.south_bridge.ide.disks.dma_write_full_pages            4                       # Number of full page size DMA writes.
system.pc.south_bridge.ide.disks.dma_write_txs            4                       # Number of DMA write transactions.
system.ruby.DMA_Controller.I.allocI_load |       28271    100.00%    100.00% |           0      0.00%    100.00%
system.ruby.DMA_Controller.I.allocI_load::total        28271                      
system.ruby.DMA_Controller.I.allocI_store |         256    100.00%    100.00% |           0      0.00%    100.00%
system.ruby.DMA_Controller.I.allocI_store::total          256                      
system.ruby.DMA_Controller.I.deallocfwdfrom_in |       27503    100.00%    100.00% |           0      0.00%    100.00%
system.ruby.DMA_Controller.I.deallocfwdfrom_in::total        27503                      
system.ruby.DMA_Controller.M.allocTBE    |         256    100.00%    100.00% |           0      0.00%    100.00%
system.ruby.DMA_Controller.M.allocTBE::total          256                      
system.ruby.DMA_Controller.M.externalstoreMrespfrom_in |         256    100.00%    100.00% |           0      0.00%    100.00%
system.ruby.DMA_Controller.M.externalstoreMrespfrom_in::total          256                      
system.ruby.DMA_Controller.S.SloadSEvent |          86    100.00%    100.00% |           0      0.00%    100.00%
system.ruby.DMA_Controller.S.SloadSEvent::total           86                      
system.ruby.DMA_Controller.S.allocTBE    |       27504    100.00%    100.00% |           0      0.00%    100.00%
system.ruby.DMA_Controller.S.allocTBE::total        27504                      
system.ruby.DMA_Controller.S.deallocTBE  |         256    100.00%    100.00% |           0      0.00%    100.00%
system.ruby.DMA_Controller.S.deallocTBE::total          256                      
system.ruby.DMA_Controller.S.externalloadSrespfrom_in |       28271    100.00%    100.00% |           0      0.00%    100.00%
system.ruby.DMA_Controller.S.externalloadSrespfrom_in::total        28271                      
system.ruby.DMA_Controller.S_evict.Stallmandatory_in |       79497    100.00%    100.00% |           0      0.00%    100.00%
system.ruby.DMA_Controller.S_evict.Stallmandatory_in::total        79497                      
system.ruby.DMA_Controller.SloadSEvent   |          86    100.00%    100.00% |           0      0.00%    100.00%
system.ruby.DMA_Controller.SloadSEvent::total           86                      
system.ruby.DMA_Controller.Stallmandatory_in |       79497    100.00%    100.00% |           0      0.00%    100.00%
system.ruby.DMA_Controller.Stallmandatory_in::total        79497                      
system.ruby.DMA_Controller.allocI_load   |       28271    100.00%    100.00% |           0      0.00%    100.00%
system.ruby.DMA_Controller.allocI_load::total        28271                      
system.ruby.DMA_Controller.allocI_store  |         256    100.00%    100.00% |           0      0.00%    100.00%
system.ruby.DMA_Controller.allocI_store::total          256                      
system.ruby.DMA_Controller.allocTBE      |       27760    100.00%    100.00% |           0      0.00%    100.00%
system.ruby.DMA_Controller.allocTBE::total        27760                      
system.ruby.DMA_Controller.deallocTBE    |         256    100.00%    100.00% |           0      0.00%    100.00%
system.ruby.DMA_Controller.deallocTBE::total          256                      
system.ruby.DMA_Controller.deallocfwdfrom_in |       27503    100.00%    100.00% |           0      0.00%    100.00%
system.ruby.DMA_Controller.deallocfwdfrom_in::total        27503                      
system.ruby.DMA_Controller.externalloadSrespfrom_in |       28271    100.00%    100.00% |           0      0.00%    100.00%
system.ruby.DMA_Controller.externalloadSrespfrom_in::total        28271                      
system.ruby.DMA_Controller.externalstoreMrespfrom_in |         256    100.00%    100.00% |           0      0.00%    100.00%
system.ruby.DMA_Controller.externalstoreMrespfrom_in::total          256                      
system.ruby.Directory_Controller.I.allocTBE |    13979147     24.67%     24.67% |    13931622     24.59%     49.27% |    13630822     24.06%     73.33% |    15112145     26.67%    100.00%
system.ruby.Directory_Controller.I.allocTBE::total     56653736                      
system.ruby.Directory_Controller.I.deallocTBE |    13978351     24.67%     24.67% |    13930803     24.59%     49.27% |    13630019     24.06%     73.33% |    15111322     26.67%    100.00%
system.ruby.Directory_Controller.I.deallocTBE::total     56650495                      
system.ruby.Directory_Controller.I_GetML1C1C1_0.Stallreqto_in |           1     20.00%     20.00% |           4     80.00%    100.00% |           0      0.00%    100.00% |           0      0.00%    100.00%
system.ruby.Directory_Controller.I_GetML1C1C1_0.Stallreqto_in::total            5                      
system.ruby.Directory_Controller.I_GetSL1C1C1_0.Stallreqto_in |         632     25.89%     25.89% |         543     22.24%     48.14% |         722     29.58%     77.71% |         544     22.29%    100.00%
system.ruby.Directory_Controller.I_GetSL1C1C1_0.Stallreqto_in::total         2441                      
system.ruby.Directory_Controller.M.allocTBE |     6956422     24.52%     24.52% |     6856808     24.17%     48.69% |     6911968     24.36%     73.06% |     7643669     26.94%    100.00%
system.ruby.Directory_Controller.M.allocTBE::total     28368867                      
system.ruby.Directory_Controller.M.deallocTBE |     6956522     24.52%     24.52% |     6856900     24.17%     48.69% |     6912074     24.36%     73.06% |     7643773     26.94%    100.00%
system.ruby.Directory_Controller.M.deallocTBE::total     28369269                      
system.ruby.Directory_Controller.M_GetM.Progress |        3152     31.43%     31.43% |        3813     38.02%     69.44% |        1055     10.52%     79.96% |        2010     20.04%    100.00%
system.ruby.Directory_Controller.M_GetM.Progress::total        10030                      
system.ruby.Directory_Controller.M_GetM.Stallreqto_in |          12     48.00%     48.00% |           6     24.00%     72.00% |           2      8.00%     80.00% |           5     20.00%    100.00%
system.ruby.Directory_Controller.M_GetM.Stallreqto_in::total           25                      
system.ruby.Directory_Controller.M_GetS.Progress |       24694     24.95%     24.95% |       25378     25.65%     50.60% |       24449     24.71%     75.31% |       24436     24.69%    100.00%
system.ruby.Directory_Controller.M_GetS.Progress::total        98957                      
system.ruby.Directory_Controller.M_GetS.Stallreqto_in |         194     20.49%     20.49% |         263     27.77%     48.26% |         264     27.88%     76.14% |         226     23.86%    100.00%
system.ruby.Directory_Controller.M_GetS.Stallreqto_in::total          947                      
system.ruby.Directory_Controller.M_GetS_WBL1C1C1_0.Stallreqto_in |         504     16.23%     16.23% |        1247     40.16%     56.39% |         712     22.93%     79.32% |         642     20.68%    100.00%
system.ruby.Directory_Controller.M_GetS_WBL1C1C1_0.Stallreqto_in::total         3105                      
system.ruby.Directory_Controller.M_PutML1C1C1_0.Stallreqto_in |           0      0.00%      0.00% |           0      0.00%      0.00% |           3     50.00%     50.00% |           3     50.00%    100.00%
system.ruby.Directory_Controller.M_PutML1C1C1_0.Stallreqto_in::total            6                      
system.ruby.Directory_Controller.Progress |       74668     34.45%     34.45% |       49793     22.97%     57.42% |       44908     20.72%     78.14% |       47373     21.86%    100.00%
system.ruby.Directory_Controller.Progress::total       216742                      
system.ruby.Directory_Controller.S.allocTBE |    20753722     24.98%     24.98% |    19991026     24.06%     49.03% |    19509348     23.48%     72.51% |    22840555     27.49%    100.00%
system.ruby.Directory_Controller.S.allocTBE::total     83094651                      
system.ruby.Directory_Controller.S.deallocTBE |    20754418     24.98%     24.98% |    19991752     24.06%     49.03% |    19510045     23.48%     72.51% |    22841274     27.49%    100.00%
system.ruby.Directory_Controller.S.deallocTBE::total     83097489                      
system.ruby.Directory_Controller.S_GetM.Progress |       46822     43.45%     43.45% |       20602     19.12%     62.57% |       19404     18.01%     80.58% |       20927     19.42%    100.00%
system.ruby.Directory_Controller.S_GetM.Progress::total       107755                      
system.ruby.Directory_Controller.S_GetM.Stallreqto_in |          14      7.65%      7.65% |          83     45.36%     53.01% |          29     15.85%     68.85% |          57     31.15%    100.00%
system.ruby.Directory_Controller.S_GetM.Stallreqto_in::total          183                      
system.ruby.Directory_Controller.S_GetM.allocTBE |       39386     32.61%     32.61% |       27816     23.03%     55.64% |       26849     22.23%     77.87% |       26729     22.13%    100.00%
system.ruby.Directory_Controller.S_GetM.allocTBE::total       120780                      
system.ruby.Directory_Controller.S_GetM.deallocTBE |       39386     32.61%     32.61% |       27816     23.03%     55.64% |       26849     22.23%     77.87% |       26729     22.13%    100.00%
system.ruby.Directory_Controller.S_GetM.deallocTBE::total       120780                      
system.ruby.Directory_Controller.S_GetML1C1C1_0.Stallreqto_in |           7      5.74%      5.74% |          59     48.36%     54.10% |          22     18.03%     72.13% |          34     27.87%    100.00%
system.ruby.Directory_Controller.S_GetML1C1C1_0.Stallreqto_in::total          122                      
system.ruby.Directory_Controller.S_GetML1C1C1_1.Stallreqto_in |           0      0.00%      0.00% |           0      0.00%      0.00% |           5    100.00%    100.00% |           0      0.00%    100.00%
system.ruby.Directory_Controller.S_GetML1C1C1_1.Stallreqto_in::total            5                      
system.ruby.Directory_Controller.S_GetSL1C1C1_0.Stallreqto_in |         790     24.26%     24.26% |         844     25.91%     50.17% |         863     26.50%     76.67% |         760     23.33%    100.00%
system.ruby.Directory_Controller.S_GetSL1C1C1_0.Stallreqto_in::total         3257                      
system.ruby.Directory_Controller.Stallreqto_in |        2154     21.34%     21.34% |        3049     30.20%     51.54% |        2622     25.97%     77.51% |        2271     22.49%    100.00%
system.ruby.Directory_Controller.Stallreqto_in::total        10096                      
system.ruby.Directory_Controller.allocTBE |    41728677     24.80%     24.80% |    40807272     24.26%     49.06% |    40078987     23.82%     72.88% |    45623098     27.12%    100.00%
system.ruby.Directory_Controller.allocTBE::total    168238034                      
system.ruby.Directory_Controller.deallocTBE |    41728677     24.80%     24.80% |    40807271     24.26%     49.06% |    40078987     23.82%     72.88% |    45623098     27.12%    100.00%
system.ruby.Directory_Controller.deallocTBE::total    168238033                      
system.ruby.IFETCH.hit_latency_hist_seqr::bucket_size            1                      
system.ruby.IFETCH.hit_latency_hist_seqr::max_bucket            9                      
system.ruby.IFETCH.hit_latency_hist_seqr::samples  30788739645                      
system.ruby.IFETCH.hit_latency_hist_seqr | 30788739645    100.00%    100.00% |           0      0.00%    100.00% |           0      0.00%    100.00% |           0      0.00%    100.00% |           0      0.00%    100.00% |           0      0.00%    100.00% |           0      0.00%    100.00% |           0      0.00%    100.00% |           0      0.00%    100.00% |           0      0.00%    100.00%
system.ruby.IFETCH.hit_latency_hist_seqr::total  30788739645                      
system.ruby.IFETCH.latency_hist_seqr::bucket_size            1                      
system.ruby.IFETCH.latency_hist_seqr::max_bucket            9                      
system.ruby.IFETCH.latency_hist_seqr::samples  30796091036                      
system.ruby.IFETCH.latency_hist_seqr     | 30796091036    100.00%    100.00% |           0      0.00%    100.00% |           0      0.00%    100.00% |           0      0.00%    100.00% |           0      0.00%    100.00% |           0      0.00%    100.00% |           0      0.00%    100.00% |           0      0.00%    100.00% |           0      0.00%    100.00% |           0      0.00%    100.00%
system.ruby.IFETCH.latency_hist_seqr::total  30796091036                      
system.ruby.IFETCH.miss_latency_hist_seqr::bucket_size            1                      
system.ruby.IFETCH.miss_latency_hist_seqr::max_bucket            9                      
system.ruby.IFETCH.miss_latency_hist_seqr::samples      7351391                      
system.ruby.IFETCH.miss_latency_hist_seqr |     7351391    100.00%    100.00% |           0      0.00%    100.00% |           0      0.00%    100.00% |           0      0.00%    100.00% |           0      0.00%    100.00% |           0      0.00%    100.00% |           0      0.00%    100.00% |           0      0.00%    100.00% |           0      0.00%    100.00% |           0      0.00%    100.00%
system.ruby.IFETCH.miss_latency_hist_seqr::total      7351391                      
system.ruby.L1Cache_Controller.I.allocI_load |    15467384     22.21%     22.21% |    23737500     34.08%     56.29% |    15663187     22.49%     78.78% |    14779404     21.22%    100.00%
system.ruby.L1Cache_Controller.I.allocI_load::total     69647475                      
system.ruby.L1Cache_Controller.I.allocI_store |      218643     34.17%     34.17% |      194869     30.46%     64.63% |      172351     26.94%     91.57% |       53926      8.43%    100.00%
system.ruby.L1Cache_Controller.I.allocI_store::total       639789                      
system.ruby.L1Cache_Controller.I.deallocfwdfrom_in |    15685021     22.32%     22.32% |    23931369     34.05%     56.37% |    15834542     22.53%     78.90% |    14832322     21.10%    100.00%
system.ruby.L1Cache_Controller.I.deallocfwdfrom_in::total     70283254                      
system.ruby.L1Cache_Controller.I_store.Progress |       28467     95.79%     95.79% |         480      1.62%     97.41% |         397      1.34%     98.74% |         374      1.26%    100.00%
system.ruby.L1Cache_Controller.I_store.Progress::total        29718                      
system.ruby.L1Cache_Controller.I_store.Stallfwdfrom_in |          19     19.19%     19.19% |          53     53.54%     72.73% |           9      9.09%     81.82% |          18     18.18%    100.00%
system.ruby.L1Cache_Controller.I_store.Stallfwdfrom_in::total           99                      
system.ruby.L1Cache_Controller.M.MloadMEvent |  1244780718     25.89%     25.89% |  1127122526     23.44%     49.34% |  1223193295     25.44%     74.78% |  1212466290     25.22%    100.00%
system.ruby.L1Cache_Controller.M.MloadMEvent::total   4807562829                      
system.ruby.L1Cache_Controller.M.MstoreMEvent |   987812203     25.53%     25.53% |   947161922     24.48%     50.00% |   972810911     25.14%     75.14% |   961915476     24.86%    100.00%
system.ruby.L1Cache_Controller.M.MstoreMEvent::total   3869700512                      
system.ruby.L1Cache_Controller.M.allocTBE |     6479287     22.84%     22.84% |     9281963     32.72%     55.56% |     6563569     23.14%     78.70% |     6043772     21.30%    100.00%
system.ruby.L1Cache_Controller.M.allocTBE::total     28368591                      
system.ruby.L1Cache_Controller.M.externalstoreMrespfrom_in |     6479388     22.84%     22.84% |     9282054     32.72%     55.56% |     6563692     23.14%     78.70% |     6043859     21.30%    100.00%
system.ruby.L1Cache_Controller.M.externalstoreMrespfrom_in::total     28368993                      
system.ruby.L1Cache_Controller.M_evict.Stallmandatory_in |        2433     24.15%     24.15% |        3122     30.99%     55.15% |        2322     23.05%     78.20% |        2196     21.80%    100.00%
system.ruby.L1Cache_Controller.M_evict.Stallmandatory_in::total        10073                      
system.ruby.L1Cache_Controller.M_evict_x_I.Progress |           0      0.00%      0.00% |           1    100.00%    100.00% |           0      0.00%    100.00% |           0      0.00%    100.00%
system.ruby.L1Cache_Controller.M_evict_x_I.Progress::total            1                      
system.ruby.L1Cache_Controller.M_evict_x_I.Stallmandatory_in |           0      0.00%      0.00% |           3    100.00%    100.00% |           0      0.00%    100.00% |           0      0.00%    100.00%
system.ruby.L1Cache_Controller.M_evict_x_I.Stallmandatory_in::total            3                      
system.ruby.L1Cache_Controller.MloadMEvent |  1244780718     25.89%     25.89% |  1127122526     23.44%     49.34% |  1223193295     25.44%     74.78% |  1212466290     25.22%    100.00%
system.ruby.L1Cache_Controller.MloadMEvent::total   4807562829                      
system.ruby.L1Cache_Controller.MstoreMEvent |   987812203     25.53%     25.53% |   947161922     24.48%     50.00% |   972810911     25.14%     75.14% |   961915476     24.86%    100.00%
system.ruby.L1Cache_Controller.MstoreMEvent::total   3869700512                      
system.ruby.L1Cache_Controller.Progress  |     6444917     23.05%     23.05% |     9104672     32.57%     55.62% |     6404364     22.91%     78.53% |     6003867     21.47%    100.00%
system.ruby.L1Cache_Controller.Progress::total     27957820                      
system.ruby.L1Cache_Controller.S.SloadSEvent |    39341642      0.00%      0.00% |18446744073492535296     33.33%     33.33% |18446744073634119680     33.33%     66.67% |18446744073531543552     33.33%    100.00%
system.ruby.L1Cache_Controller.S.SloadSEvent::total 55340232220697542656                      
system.ruby.L1Cache_Controller.S.allocTBE |    15523982     22.26%     22.26% |    23754597     34.06%     56.32% |    15672580     22.47%     78.79% |    14791395     21.21%    100.00%
system.ruby.L1Cache_Controller.S.allocTBE::total     69742554                      
system.ruby.L1Cache_Controller.S.deallocTBE |       57503     58.27%     58.27% |       18006     18.25%     76.51% |       10266     10.40%     86.92% |       12912     13.08%    100.00%
system.ruby.L1Cache_Controller.S.deallocTBE::total        98687                      
system.ruby.L1Cache_Controller.S.externalloadSrespfrom_in |    15467384     22.21%     22.21% |    23737500     34.08%     56.29% |    15663187     22.49%     78.78% |    14779403     21.22%    100.00%
system.ruby.L1Cache_Controller.S.externalloadSrespfrom_in::total     69647474                      
system.ruby.L1Cache_Controller.S_evict.Progress |           6     42.86%     42.86% |           7     50.00%     92.86% |           0      0.00%     92.86% |           1      7.14%    100.00%
system.ruby.L1Cache_Controller.S_evict.Progress::total           14                      
system.ruby.L1Cache_Controller.S_evict.Stallmandatory_in |        1510     24.41%     24.41% |        2172     35.11%     59.52% |        1218     19.69%     79.21% |        1286     20.79%    100.00%
system.ruby.L1Cache_Controller.S_evict.Stallmandatory_in::total         6186                      
system.ruby.L1Cache_Controller.S_evict_x_I.Progress |           8     42.11%     42.11% |           6     31.58%     73.68% |           3     15.79%     89.47% |           2     10.53%    100.00%
system.ruby.L1Cache_Controller.S_evict_x_I.Progress::total           19                      
system.ruby.L1Cache_Controller.S_evict_x_I.Stallmandatory_in |          29     43.28%     43.28% |          22     32.84%     76.12% |           9     13.43%     89.55% |           7     10.45%    100.00%
system.ruby.L1Cache_Controller.S_evict_x_I.Stallmandatory_in::total           67                      
system.ruby.L1Cache_Controller.S_store.Progress |     6416436     22.97%     22.97% |     9104178     32.60%     55.57% |     6403964     22.93%     78.50% |     6003490     21.50%    100.00%
system.ruby.L1Cache_Controller.S_store.Progress::total     27928068                      
system.ruby.L1Cache_Controller.S_store.Stallfwdfrom_in |           6     27.27%     27.27% |           5     22.73%     50.00% |           2      9.09%     59.09% |           9     40.91%    100.00%
system.ruby.L1Cache_Controller.S_store.Stallfwdfrom_in::total           22                      
system.ruby.L1Cache_Controller.SloadSEvent |    39341642      0.00%      0.00% |18446744073492535296     33.33%     33.33% |18446744073634119680     33.33%     66.67% |18446744073531543552     33.33%    100.00%
system.ruby.L1Cache_Controller.SloadSEvent::total 55340232220697542656                      
system.ruby.L1Cache_Controller.Stallfwdfrom_in |          25     20.66%     20.66% |          58     47.93%     68.60% |          11      9.09%     77.69% |          27     22.31%    100.00%
system.ruby.L1Cache_Controller.Stallfwdfrom_in::total          121                      
system.ruby.L1Cache_Controller.Stallmandatory_in |        3972     24.32%     24.32% |        5319     32.57%     56.90% |        3549     21.73%     78.63% |        3489     21.37%    100.00%
system.ruby.L1Cache_Controller.Stallmandatory_in::total        16329                      
system.ruby.L1Cache_Controller.allocI_load |    15467384     22.21%     22.21% |    23737500     34.08%     56.29% |    15663187     22.49%     78.78% |    14779404     21.22%    100.00%
system.ruby.L1Cache_Controller.allocI_load::total     69647475                      
system.ruby.L1Cache_Controller.allocI_store |      218643     34.17%     34.17% |      194869     30.46%     64.63% |      172351     26.94%     91.57% |       53926      8.43%    100.00%
system.ruby.L1Cache_Controller.allocI_store::total       639789                      
system.ruby.L1Cache_Controller.allocTBE  |    22003269     22.43%     22.43% |    33036560     33.67%     56.10% |    22236149     22.66%     78.76% |    20835167     21.24%    100.00%
system.ruby.L1Cache_Controller.allocTBE::total     98111145                      
system.ruby.L1Cache_Controller.deallocTBE |       57503     58.27%     58.27% |       18006     18.25%     76.51% |       10266     10.40%     86.92% |       12912     13.08%    100.00%
system.ruby.L1Cache_Controller.deallocTBE::total        98687                      
system.ruby.L1Cache_Controller.deallocfwdfrom_in |    15685021     22.32%     22.32% |    23931369     34.05%     56.37% |    15834542     22.53%     78.90% |    14832322     21.10%    100.00%
system.ruby.L1Cache_Controller.deallocfwdfrom_in::total     70283254                      
system.ruby.L1Cache_Controller.externalloadSrespfrom_in |    15467384     22.21%     22.21% |    23737500     34.08%     56.29% |    15663187     22.49%     78.78% |    14779403     21.22%    100.00%
system.ruby.L1Cache_Controller.externalloadSrespfrom_in::total     69647474                      
system.ruby.L1Cache_Controller.externalstoreMrespfrom_in |     6479388     22.84%     22.84% |     9282054     32.72%     55.56% |     6563692     23.14%     78.70% |     6043859     21.30%    100.00%
system.ruby.L1Cache_Controller.externalstoreMrespfrom_in::total     28368993                      
system.ruby.LD.hit_latency_hist_seqr::bucket_size            1                      
system.ruby.LD.hit_latency_hist_seqr::max_bucket            9                      
system.ruby.LD.hit_latency_hist_seqr::samples   7947445625                      
system.ruby.LD.hit_latency_hist_seqr     |  7947445625    100.00%    100.00% |           0      0.00%    100.00% |           0      0.00%    100.00% |           0      0.00%    100.00% |           0      0.00%    100.00% |           0      0.00%    100.00% |           0      0.00%    100.00% |           0      0.00%    100.00% |           0      0.00%    100.00% |           0      0.00%    100.00%
system.ruby.LD.hit_latency_hist_seqr::total   7947445625                      
system.ruby.LD.latency_hist_seqr::bucket_size            1                      
system.ruby.LD.latency_hist_seqr::max_bucket            9                      
system.ruby.LD.latency_hist_seqr::samples   8009741708                      
system.ruby.LD.latency_hist_seqr         |  8009741708    100.00%    100.00% |           0      0.00%    100.00% |           0      0.00%    100.00% |           0      0.00%    100.00% |           0      0.00%    100.00% |           0      0.00%    100.00% |           0      0.00%    100.00% |           0      0.00%    100.00% |           0      0.00%    100.00% |           0      0.00%    100.00%
system.ruby.LD.latency_hist_seqr::total    8009741708                      
system.ruby.LD.miss_latency_hist_seqr::bucket_size            1                      
system.ruby.LD.miss_latency_hist_seqr::max_bucket            9                      
system.ruby.LD.miss_latency_hist_seqr::samples     62296083                      
system.ruby.LD.miss_latency_hist_seqr    |    62296083    100.00%    100.00% |           0      0.00%    100.00% |           0      0.00%    100.00% |           0      0.00%    100.00% |           0      0.00%    100.00% |           0      0.00%    100.00% |           0      0.00%    100.00% |           0      0.00%    100.00% |           0      0.00%    100.00% |           0      0.00%    100.00%
system.ruby.LD.miss_latency_hist_seqr::total     62296083                      
system.ruby.Locked_RMW_Read.hit_latency_hist_seqr::bucket_size            1                      
system.ruby.Locked_RMW_Read.hit_latency_hist_seqr::max_bucket            9                      
system.ruby.Locked_RMW_Read.hit_latency_hist_seqr::samples       291321                      
system.ruby.Locked_RMW_Read.hit_latency_hist_seqr |      291321    100.00%    100.00% |           0      0.00%    100.00% |           0      0.00%    100.00% |           0      0.00%    100.00% |           0      0.00%    100.00% |           0      0.00%    100.00% |           0      0.00%    100.00% |           0      0.00%    100.00% |           0      0.00%    100.00% |           0      0.00%    100.00%
system.ruby.Locked_RMW_Read.hit_latency_hist_seqr::total       291321                      
system.ruby.Locked_RMW_Read.latency_hist_seqr::bucket_size            1                      
system.ruby.Locked_RMW_Read.latency_hist_seqr::max_bucket            9                      
system.ruby.Locked_RMW_Read.latency_hist_seqr::samples       367872                      
system.ruby.Locked_RMW_Read.latency_hist_seqr |      367872    100.00%    100.00% |           0      0.00%    100.00% |           0      0.00%    100.00% |           0      0.00%    100.00% |           0      0.00%    100.00% |           0      0.00%    100.00% |           0      0.00%    100.00% |           0      0.00%    100.00% |           0      0.00%    100.00% |           0      0.00%    100.00%
system.ruby.Locked_RMW_Read.latency_hist_seqr::total       367872                      
system.ruby.Locked_RMW_Read.miss_latency_hist_seqr::bucket_size            1                      
system.ruby.Locked_RMW_Read.miss_latency_hist_seqr::max_bucket            9                      
system.ruby.Locked_RMW_Read.miss_latency_hist_seqr::samples        76551                      
system.ruby.Locked_RMW_Read.miss_latency_hist_seqr |       76551    100.00%    100.00% |           0      0.00%    100.00% |           0      0.00%    100.00% |           0      0.00%    100.00% |           0      0.00%    100.00% |           0      0.00%    100.00% |           0      0.00%    100.00% |           0      0.00%    100.00% |           0      0.00%    100.00% |           0      0.00%    100.00%
system.ruby.Locked_RMW_Read.miss_latency_hist_seqr::total        76551                      
system.ruby.Locked_RMW_Write.hit_latency_hist_seqr::bucket_size            1                      
system.ruby.Locked_RMW_Write.hit_latency_hist_seqr::max_bucket            9                      
system.ruby.Locked_RMW_Write.hit_latency_hist_seqr::samples       367872                      
system.ruby.Locked_RMW_Write.hit_latency_hist_seqr |      367872    100.00%    100.00% |           0      0.00%    100.00% |           0      0.00%    100.00% |           0      0.00%    100.00% |           0      0.00%    100.00% |           0      0.00%    100.00% |           0      0.00%    100.00% |           0      0.00%    100.00% |           0      0.00%    100.00% |           0      0.00%    100.00%
system.ruby.Locked_RMW_Write.hit_latency_hist_seqr::total       367872                      
system.ruby.Locked_RMW_Write.latency_hist_seqr::bucket_size            1                      
system.ruby.Locked_RMW_Write.latency_hist_seqr::max_bucket            9                      
system.ruby.Locked_RMW_Write.latency_hist_seqr::samples       367872                      
system.ruby.Locked_RMW_Write.latency_hist_seqr |      367872    100.00%    100.00% |           0      0.00%    100.00% |           0      0.00%    100.00% |           0      0.00%    100.00% |           0      0.00%    100.00% |           0      0.00%    100.00% |           0      0.00%    100.00% |           0      0.00%    100.00% |           0      0.00%    100.00% |           0      0.00%    100.00%
system.ruby.Locked_RMW_Write.latency_hist_seqr::total       367872                      
system.ruby.RMW_Read.hit_latency_hist_seqr::bucket_size            1                      
system.ruby.RMW_Read.hit_latency_hist_seqr::max_bucket            9                      
system.ruby.RMW_Read.hit_latency_hist_seqr::samples    399478068                      
system.ruby.RMW_Read.hit_latency_hist_seqr |   399478068    100.00%    100.00% |           0      0.00%    100.00% |           0      0.00%    100.00% |           0      0.00%    100.00% |           0      0.00%    100.00% |           0      0.00%    100.00% |           0      0.00%    100.00% |           0      0.00%    100.00% |           0      0.00%    100.00% |           0      0.00%    100.00%
system.ruby.RMW_Read.hit_latency_hist_seqr::total    399478068                      
system.ruby.RMW_Read.latency_hist_seqr::bucket_size            1                      
system.ruby.RMW_Read.latency_hist_seqr::max_bucket            9                      
system.ruby.RMW_Read.latency_hist_seqr::samples    400646461                      
system.ruby.RMW_Read.latency_hist_seqr   |   400646461    100.00%    100.00% |           0      0.00%    100.00% |           0      0.00%    100.00% |           0      0.00%    100.00% |           0      0.00%    100.00% |           0      0.00%    100.00% |           0      0.00%    100.00% |           0      0.00%    100.00% |           0      0.00%    100.00% |           0      0.00%    100.00%
system.ruby.RMW_Read.latency_hist_seqr::total    400646461                      
system.ruby.RMW_Read.miss_latency_hist_seqr::bucket_size            1                      
system.ruby.RMW_Read.miss_latency_hist_seqr::max_bucket            9                      
system.ruby.RMW_Read.miss_latency_hist_seqr::samples      1168393                      
system.ruby.RMW_Read.miss_latency_hist_seqr |     1168393    100.00%    100.00% |           0      0.00%    100.00% |           0      0.00%    100.00% |           0      0.00%    100.00% |           0      0.00%    100.00% |           0      0.00%    100.00% |           0      0.00%    100.00% |           0      0.00%    100.00% |           0      0.00%    100.00% |           0      0.00%    100.00%
system.ruby.RMW_Read.miss_latency_hist_seqr::total      1168393                      
system.ruby.ST.hit_latency_hist_seqr::bucket_size            1                      
system.ruby.ST.hit_latency_hist_seqr::max_bucket            9                      
system.ruby.ST.hit_latency_hist_seqr::samples   3469563251                      
system.ruby.ST.hit_latency_hist_seqr     |  3469563251    100.00%    100.00% |           0      0.00%    100.00% |           0      0.00%    100.00% |           0      0.00%    100.00% |           0      0.00%    100.00% |           0      0.00%    100.00% |           0      0.00%    100.00% |           0      0.00%    100.00% |           0      0.00%    100.00% |           0      0.00%    100.00%
system.ruby.ST.hit_latency_hist_seqr::total   3469563251                      
system.ruby.ST.latency_hist_seqr::bucket_size            1                      
system.ruby.ST.latency_hist_seqr::max_bucket            9                      
system.ruby.ST.latency_hist_seqr::samples   3496687300                      
system.ruby.ST.latency_hist_seqr         |  3496687300    100.00%    100.00% |           0      0.00%    100.00% |           0      0.00%    100.00% |           0      0.00%    100.00% |           0      0.00%    100.00% |           0      0.00%    100.00% |           0      0.00%    100.00% |           0      0.00%    100.00% |           0      0.00%    100.00% |           0      0.00%    100.00%
system.ruby.ST.latency_hist_seqr::total    3496687300                      
system.ruby.ST.miss_latency_hist_seqr::bucket_size            1                      
system.ruby.ST.miss_latency_hist_seqr::max_bucket            9                      
system.ruby.ST.miss_latency_hist_seqr::samples     27124049                      
system.ruby.ST.miss_latency_hist_seqr    |    27124049    100.00%    100.00% |           0      0.00%    100.00% |           0      0.00%    100.00% |           0      0.00%    100.00% |           0      0.00%    100.00% |           0      0.00%    100.00% |           0      0.00%    100.00% |           0      0.00%    100.00% |           0      0.00%    100.00% |           0      0.00%    100.00%
system.ruby.ST.miss_latency_hist_seqr::total     27124049                      
system.ruby.dir_cntrl0.fwdFrom.avg_buf_msgs     0.004263                       # Average number of messages in buffer
system.ruby.dir_cntrl0.fwdFrom.avg_stall_time  2999.999070                       # Average number of cycles messages are stalled in this MB
system.ruby.dir_cntrl0.reqTo.avg_buf_msgs     0.001695                       # Average number of messages in buffer
system.ruby.dir_cntrl0.reqTo.avg_stall_time  5152.056299                       # Average number of cycles messages are stalled in this MB
system.ruby.dir_cntrl0.requestToMemory.avg_buf_msgs     0.001268                       # Average number of messages in buffer
system.ruby.dir_cntrl0.requestToMemory.avg_stall_time   499.999987                       # Average number of cycles messages are stalled in this MB
system.ruby.dir_cntrl0.respFrom.avg_buf_msgs     0.005919                       # Average number of messages in buffer
system.ruby.dir_cntrl0.respFrom.avg_stall_time  3000.324613                       # Average number of cycles messages are stalled in this MB
system.ruby.dir_cntrl0.respTo.avg_buf_msgs     0.000005                       # Average number of messages in buffer
system.ruby.dir_cntrl0.respTo.avg_stall_time  9479.006685                       # Average number of cycles messages are stalled in this MB
system.ruby.dir_cntrl0.responseFromMemory.avg_buf_msgs     0.001269                       # Average number of messages in buffer
system.ruby.dir_cntrl0.responseFromMemory.avg_stall_time   499.999984                       # Average number of cycles messages are stalled in this MB
system.ruby.dir_cntrl1.fwdFrom.avg_buf_msgs     0.004155                       # Average number of messages in buffer
system.ruby.dir_cntrl1.fwdFrom.avg_stall_time  2999.997347                       # Average number of cycles messages are stalled in this MB
system.ruby.dir_cntrl1.reqTo.avg_buf_msgs     0.001658                       # Average number of messages in buffer
system.ruby.dir_cntrl1.reqTo.avg_stall_time  5798.703550                       # Average number of cycles messages are stalled in this MB
system.ruby.dir_cntrl1.requestToMemory.avg_buf_msgs     0.001244                       # Average number of messages in buffer
system.ruby.dir_cntrl1.requestToMemory.avg_stall_time   500.000000                       # Average number of cycles messages are stalled in this MB
system.ruby.dir_cntrl1.respFrom.avg_buf_msgs     0.005803                       # Average number of messages in buffer
system.ruby.dir_cntrl1.respFrom.avg_stall_time  3000.521392                       # Average number of cycles messages are stalled in this MB
system.ruby.dir_cntrl1.respTo.avg_buf_msgs     0.000003                       # Average number of messages in buffer
system.ruby.dir_cntrl1.respTo.avg_stall_time  9931.387111                       # Average number of cycles messages are stalled in this MB
system.ruby.dir_cntrl1.responseFromMemory.avg_buf_msgs     0.001245                       # Average number of messages in buffer
system.ruby.dir_cntrl1.responseFromMemory.avg_stall_time   499.999996                       # Average number of cycles messages are stalled in this MB
system.ruby.dir_cntrl2.fwdFrom.avg_buf_msgs     0.004064                       # Average number of messages in buffer
system.ruby.dir_cntrl2.fwdFrom.avg_stall_time  2999.996393                       # Average number of cycles messages are stalled in this MB
system.ruby.dir_cntrl2.reqTo.avg_buf_msgs     0.001629                       # Average number of messages in buffer
system.ruby.dir_cntrl2.reqTo.avg_stall_time  5336.694144                       # Average number of cycles messages are stalled in this MB
system.ruby.dir_cntrl2.requestToMemory.avg_buf_msgs     0.001232                       # Average number of messages in buffer
system.ruby.dir_cntrl2.requestToMemory.avg_stall_time   500.000000                       # Average number of cycles messages are stalled in this MB
system.ruby.dir_cntrl2.respFrom.avg_buf_msgs     0.005732                       # Average number of messages in buffer
system.ruby.dir_cntrl2.respFrom.avg_stall_time  3000.880371                       # Average number of cycles messages are stalled in this MB
system.ruby.dir_cntrl2.respTo.avg_buf_msgs     0.000003                       # Average number of messages in buffer
system.ruby.dir_cntrl2.respTo.avg_stall_time  9959.461523                       # Average number of cycles messages are stalled in this MB
system.ruby.dir_cntrl2.responseFromMemory.avg_buf_msgs     0.001233                       # Average number of messages in buffer
system.ruby.dir_cntrl2.responseFromMemory.avg_stall_time   499.999996                       # Average number of cycles messages are stalled in this MB
system.ruby.dir_cntrl3.fwdFrom.avg_buf_msgs     0.004658                       # Average number of messages in buffer
system.ruby.dir_cntrl3.fwdFrom.avg_stall_time  2999.999323                       # Average number of cycles messages are stalled in this MB
system.ruby.dir_cntrl3.reqTo.avg_buf_msgs     0.001854                       # Average number of messages in buffer
system.ruby.dir_cntrl3.reqTo.avg_stall_time  5647.039947                       # Average number of cycles messages are stalled in this MB
system.ruby.dir_cntrl3.requestToMemory.avg_buf_msgs     0.001388                       # Average number of messages in buffer
system.ruby.dir_cntrl3.requestToMemory.avg_stall_time   499.999991                       # Average number of cycles messages are stalled in this MB
system.ruby.dir_cntrl3.respFrom.avg_buf_msgs     0.006491                       # Average number of messages in buffer
system.ruby.dir_cntrl3.respFrom.avg_stall_time  3000.821749                       # Average number of cycles messages are stalled in this MB
system.ruby.dir_cntrl3.respTo.avg_buf_msgs     0.000003                       # Average number of messages in buffer
system.ruby.dir_cntrl3.respTo.avg_stall_time 10071.650773                       # Average number of cycles messages are stalled in this MB
system.ruby.dir_cntrl3.responseFromMemory.avg_buf_msgs     0.001389                       # Average number of messages in buffer
system.ruby.dir_cntrl3.responseFromMemory.avg_stall_time   499.999988                       # Average number of cycles messages are stalled in this MB
system.ruby.dma_cntrl0.cache.demand_accesses            0                       # Number of cache demand accesses
system.ruby.dma_cntrl0.cache.demand_hits            0                       # Number of cache demand hits
system.ruby.dma_cntrl0.cache.demand_misses            0                       # Number of cache demand misses
system.ruby.dma_cntrl0.fully_busy_cycles        24573                       # cycles for which number of transistions == max transitions
system.ruby.dma_cntrl0.fwdFrom.avg_buf_msgs     0.000001                       # Average number of messages in buffer
system.ruby.dma_cntrl0.fwdFrom.avg_stall_time 17272.779998                       # Average number of cycles messages are stalled in this MB
system.ruby.dma_cntrl0.mandatoryQueue.avg_buf_msgs     0.000039                       # Average number of messages in buffer
system.ruby.dma_cntrl0.mandatoryQueue.avg_stall_time 25063.830744                       # Average number of cycles messages are stalled in this MB
system.ruby.dma_cntrl0.reqTo.avg_buf_msgs     0.000017                       # Average number of messages in buffer
system.ruby.dma_cntrl0.reqTo.avg_stall_time   853.709528                       # Average number of cycles messages are stalled in this MB
system.ruby.dma_cntrl0.respFrom.avg_buf_msgs     0.000001                       # Average number of messages in buffer
system.ruby.dma_cntrl0.respFrom.avg_stall_time 205790.572678                       # Average number of cycles messages are stalled in this MB
system.ruby.dma_cntrl0.respTo.avg_buf_msgs     0.000000                       # Average number of messages in buffer
system.ruby.dma_cntrl0.respTo.avg_stall_time   895.546127                       # Average number of cycles messages are stalled in this MB
system.ruby.hit_latency_hist_seqr::bucket_size            1                      
system.ruby.hit_latency_hist_seqr::max_bucket            9                      
system.ruby.hit_latency_hist_seqr::samples  42605885782                      
system.ruby.hit_latency_hist_seqr        | 42605885782    100.00%    100.00% |           0      0.00%    100.00% |           0      0.00%    100.00% |           0      0.00%    100.00% |           0      0.00%    100.00% |           0      0.00%    100.00% |           0      0.00%    100.00% |           0      0.00%    100.00% |           0      0.00%    100.00% |           0      0.00%    100.00%
system.ruby.hit_latency_hist_seqr::total  42605885782                      
system.ruby.io_controller.cache.demand_accesses            0                       # Number of cache demand accesses
system.ruby.io_controller.cache.demand_hits            0                       # Number of cache demand hits
system.ruby.io_controller.cache.demand_misses            0                       # Number of cache demand misses
system.ruby.l1_cntrl0.cache.demand_accesses            0                       # Number of cache demand accesses
system.ruby.l1_cntrl0.cache.demand_hits             0                       # Number of cache demand hits
system.ruby.l1_cntrl0.cache.demand_misses            0                       # Number of cache demand misses
system.ruby.l1_cntrl0.fully_busy_cycles            30                       # cycles for which number of transistions == max transitions
system.ruby.l1_cntrl0.fwdFrom.avg_buf_msgs     2.928172                       # Average number of messages in buffer
system.ruby.l1_cntrl0.fwdFrom.avg_stall_time  6498.334698                       # Average number of cycles messages are stalled in this MB
system.ruby.l1_cntrl0.mandatoryQueue.avg_buf_msgs     0.460903                       # Average number of messages in buffer
system.ruby.l1_cntrl0.mandatoryQueue.avg_stall_time  1324.840927                       # Average number of cycles messages are stalled in this MB
system.ruby.l1_cntrl0.reqTo.avg_buf_msgs     0.001528                       # Average number of messages in buffer
system.ruby.l1_cntrl0.reqTo.avg_stall_time   499.999935                       # Average number of cycles messages are stalled in this MB
system.ruby.l1_cntrl0.respFrom.avg_buf_msgs     0.000899                       # Average number of messages in buffer
system.ruby.l1_cntrl0.respFrom.avg_stall_time 16509.166454                       # Average number of cycles messages are stalled in this MB
system.ruby.l1_cntrl0.respTo.avg_buf_msgs     0.000010                       # Average number of messages in buffer
system.ruby.l1_cntrl0.respTo.avg_stall_time   999.999089                       # Average number of cycles messages are stalled in this MB
system.ruby.l1_cntrl1.cache.demand_accesses            0                       # Number of cache demand accesses
system.ruby.l1_cntrl1.cache.demand_hits             0                       # Number of cache demand hits
system.ruby.l1_cntrl1.cache.demand_misses            0                       # Number of cache demand misses
system.ruby.l1_cntrl1.fully_busy_cycles            43                       # cycles for which number of transistions == max transitions
system.ruby.l1_cntrl1.fwdFrom.avg_buf_msgs     6.718850                       # Average number of messages in buffer
system.ruby.l1_cntrl1.fwdFrom.avg_stall_time  6483.783108                       # Average number of cycles messages are stalled in this MB
system.ruby.l1_cntrl1.mandatoryQueue.avg_buf_msgs     0.453838                       # Average number of messages in buffer
system.ruby.l1_cntrl1.mandatoryQueue.avg_stall_time  1728.767264                       # Average number of cycles messages are stalled in this MB
system.ruby.l1_cntrl1.reqTo.avg_buf_msgs     0.002311                       # Average number of messages in buffer
system.ruby.l1_cntrl1.reqTo.avg_stall_time   500.000000                       # Average number of cycles messages are stalled in this MB
system.ruby.l1_cntrl1.respFrom.avg_buf_msgs     0.001342                       # Average number of messages in buffer
system.ruby.l1_cntrl1.respFrom.avg_stall_time 16495.951492                       # Average number of cycles messages are stalled in this MB
system.ruby.l1_cntrl1.respTo.avg_buf_msgs     0.000011                       # Average number of messages in buffer
system.ruby.l1_cntrl1.respTo.avg_stall_time   999.994977                       # Average number of cycles messages are stalled in this MB
system.ruby.l1_cntrl2.cache.demand_accesses            0                       # Number of cache demand accesses
system.ruby.l1_cntrl2.cache.demand_hits             0                       # Number of cache demand hits
system.ruby.l1_cntrl2.cache.demand_misses            0                       # Number of cache demand misses
system.ruby.l1_cntrl2.fully_busy_cycles            31                       # cycles for which number of transistions == max transitions
system.ruby.l1_cntrl2.fwdFrom.avg_buf_msgs     0.084343                       # Average number of messages in buffer
system.ruby.l1_cntrl2.fwdFrom.avg_stall_time  6507.129433                       # Average number of cycles messages are stalled in this MB
system.ruby.l1_cntrl2.mandatoryQueue.avg_buf_msgs     0.455004                       # Average number of messages in buffer
system.ruby.l1_cntrl2.mandatoryQueue.avg_stall_time  1335.403035                       # Average number of cycles messages are stalled in this MB
system.ruby.l1_cntrl2.reqTo.avg_buf_msgs     0.001544                       # Average number of messages in buffer
system.ruby.l1_cntrl2.reqTo.avg_stall_time   500.000000                       # Average number of cycles messages are stalled in this MB
system.ruby.l1_cntrl2.respFrom.avg_buf_msgs     0.000904                       # Average number of messages in buffer
system.ruby.l1_cntrl2.respFrom.avg_stall_time 16482.402823                       # Average number of cycles messages are stalled in this MB
system.ruby.l1_cntrl2.respTo.avg_buf_msgs     0.000010                       # Average number of messages in buffer
system.ruby.l1_cntrl2.respTo.avg_stall_time  1000.019487                       # Average number of cycles messages are stalled in this MB
system.ruby.l1_cntrl3.cache.demand_accesses            0                       # Number of cache demand accesses
system.ruby.l1_cntrl3.cache.demand_hits             0                       # Number of cache demand hits
system.ruby.l1_cntrl3.cache.demand_misses            0                       # Number of cache demand misses
system.ruby.l1_cntrl3.fully_busy_cycles            21                       # cycles for which number of transistions == max transitions
system.ruby.l1_cntrl3.fwdFrom.avg_buf_msgs     2.558453                       # Average number of messages in buffer
system.ruby.l1_cntrl3.fwdFrom.avg_stall_time  6532.574270                       # Average number of cycles messages are stalled in this MB
system.ruby.l1_cntrl3.mandatoryQueue.avg_buf_msgs     0.448592                       # Average number of messages in buffer
system.ruby.l1_cntrl3.mandatoryQueue.avg_stall_time  1277.481708                       # Average number of cycles messages are stalled in this MB
system.ruby.l1_cntrl3.reqTo.avg_buf_msgs     0.001446                       # Average number of messages in buffer
system.ruby.l1_cntrl3.reqTo.avg_stall_time   499.977144                       # Average number of cycles messages are stalled in this MB
system.ruby.l1_cntrl3.respFrom.avg_buf_msgs     0.000847                       # Average number of messages in buffer
system.ruby.l1_cntrl3.respFrom.avg_stall_time 16502.325619                       # Average number of cycles messages are stalled in this MB
system.ruby.l1_cntrl3.respTo.avg_buf_msgs     0.000011                       # Average number of messages in buffer
system.ruby.l1_cntrl3.respTo.avg_stall_time   999.951174                       # Average number of cycles messages are stalled in this MB
system.ruby.latency_hist_seqr::bucket_size            1                      
system.ruby.latency_hist_seqr::max_bucket            9                      
system.ruby.latency_hist_seqr::samples    42703902249                      
system.ruby.latency_hist_seqr            | 42703902249    100.00%    100.00% |           0      0.00%    100.00% |           0      0.00%    100.00% |           0      0.00%    100.00% |           0      0.00%    100.00% |           0      0.00%    100.00% |           0      0.00%    100.00% |           0      0.00%    100.00% |           0      0.00%    100.00% |           0      0.00%    100.00%
system.ruby.latency_hist_seqr::total      42703902249                      
system.ruby.miss_latency_hist_seqr::bucket_size            1                      
system.ruby.miss_latency_hist_seqr::max_bucket            9                      
system.ruby.miss_latency_hist_seqr::samples     98016467                      
system.ruby.miss_latency_hist_seqr       |    98016467    100.00%    100.00% |           0      0.00%    100.00% |           0      0.00%    100.00% |           0      0.00%    100.00% |           0      0.00%    100.00% |           0      0.00%    100.00% |           0      0.00%    100.00% |           0      0.00%    100.00% |           0      0.00%    100.00% |           0      0.00%    100.00%
system.ruby.miss_latency_hist_seqr::total     98016467                      
system.ruby.network.average_flit_latency    16.848519                      
system.ruby.network.average_flit_network_latency    12.514224                      
system.ruby.network.average_flit_queueing_latency     4.334294                      
system.ruby.network.average_flit_vnet_latency |   15.012727                       |    5.006834                       |   10.029354                      
system.ruby.network.average_flit_vqueue_latency |    6.003320                       |    6.000000                       |    1.001331                      
system.ruby.network.average_hops             1.000813                      
system.ruby.network.average_packet_latency    16.013699                      
system.ruby.network.average_packet_network_latency    12.509898                      
system.ruby.network.average_packet_queueing_latency     3.503801                      
system.ruby.network.average_packet_vnet_latency |   24.932989                       |    5.006834                       |    8.365379                      
system.ruby.network.average_packet_vqueue_latency |    5.986296                       |    6.000000                       |    1.002225                      
system.ruby.network.avg_link_utilization     0.102762                      
system.ruby.network.avg_vc_load          |    0.044832     43.63%     43.63% |    0.005073      4.94%     48.56% |    0.004996      4.86%     53.43% |    0.004993      4.86%     58.28% |    0.006437      6.26%     64.55% |    0.000718      0.70%     65.25% |    0.000716      0.70%     65.94% |    0.000715      0.70%     66.64% |    0.025594     24.91%     91.55% |    0.002974      2.89%     94.44% |    0.002857      2.78%     97.22% |    0.002856      2.78%    100.00%
system.ruby.network.avg_vc_load::total       0.102762                      
system.ruby.network.ext_in_link_utilization    842753390                      
system.ruby.network.ext_out_link_utilization    842753390                      
system.ruby.network.flit_network_latency |  7374054079                       |   352530100                       |  2819820674                      
system.ruby.network.flit_queueing_latency |  2948751765                       |   422458707                       |   281530882                      
system.ruby.network.flits_injected       |   491186855     58.28%     58.28% |    70409781      8.35%     66.64% |   281156754     33.36%    100.00%
system.ruby.network.flits_injected::total    842753390                      
system.ruby.network.flits_received       |   491186855     58.28%     58.28% |    70409781      8.35%     66.64% |   281156754     33.36%    100.00%
system.ruby.network.flits_received::total    842753390                      
system.ruby.network.int_link_utilization    843438956                      
system.ruby.network.packet_network_latency |  2458668277                       |   352530100                       |  1406364609                      
system.ruby.network.packet_queueing_latency |   590314893                       |   422458707                       |   168491310                      
system.ruby.network.packets_injected     |    98611051     29.25%     29.25% |    70409781     20.88%     50.13% |   168117254     49.87%    100.00%
system.ruby.network.packets_injected::total    337138086                      
system.ruby.network.packets_received     |    98611051     29.25%     29.25% |    70409781     20.88%     50.13% |   168117254     49.87%    100.00%
system.ruby.network.packets_received::total    337138086                      
system.ruby.network.routers0.buffer_reads    403475555                      
system.ruby.network.routers0.buffer_writes    403475555                      
system.ruby.network.routers0.crossbar_activity    403475555                      
system.ruby.network.routers0.sw_input_arbiter_activity    403770693                      
system.ruby.network.routers0.sw_output_arbiter_activity    403475555                      
system.ruby.network.routers1.buffer_reads    470402685                      
system.ruby.network.routers1.buffer_writes    470402685                      
system.ruby.network.routers1.crossbar_activity    470402685                      
system.ruby.network.routers1.sw_input_arbiter_activity    470652609                      
system.ruby.network.routers1.sw_output_arbiter_activity    470402685                      
system.ruby.network.routers2.buffer_reads    391526952                      
system.ruby.network.routers2.buffer_writes    391526952                      
system.ruby.network.routers2.crossbar_activity    391526952                      
system.ruby.network.routers2.sw_input_arbiter_activity    391737898                      
system.ruby.network.routers2.sw_output_arbiter_activity    391526952                      
system.ruby.network.routers3.buffer_reads    420787154                      
system.ruby.network.routers3.buffer_writes    420787154                      
system.ruby.network.routers3.crossbar_activity    420787154                      
system.ruby.network.routers3.sw_input_arbiter_activity    421011578                      
system.ruby.network.routers3.sw_output_arbiter_activity    420787154                      
system.ruby.outstanding_req_hist_seqr::bucket_size            1                      
system.ruby.outstanding_req_hist_seqr::max_bucket            9                      
system.ruby.outstanding_req_hist_seqr::samples  42703902250                      
system.ruby.outstanding_req_hist_seqr::mean     1.000000                      
system.ruby.outstanding_req_hist_seqr::gmean     1.000000                      
system.ruby.outstanding_req_hist_seqr::stdev     0.000089                      
system.ruby.outstanding_req_hist_seqr    |           0      0.00%      0.00% | 42703901915    100.00%    100.00% |         335      0.00%    100.00% |           0      0.00%    100.00% |           0      0.00%    100.00% |           0      0.00%    100.00% |           0      0.00%    100.00% |           0      0.00%    100.00% |           0      0.00%    100.00% |           0      0.00%    100.00%
system.ruby.outstanding_req_hist_seqr::total  42703902250                      
system.switch_cpus0.Branches                660024724                       # Number of branches fetched
system.switch_cpus0.committedInsts         5479667340                       # Number of instructions committed
system.switch_cpus0.committedOps          10626709034                       # Number of ops (including micro ops) committed
system.switch_cpus0.dtb.rdAccesses         2141056759                       # TLB accesses on read requests
system.switch_cpus0.dtb.rdMisses               499188                       # TLB misses on read requests
system.switch_cpus0.dtb.wrAccesses          892188182                       # TLB accesses on write requests
system.switch_cpus0.dtb.wrMisses                39756                       # TLB misses on write requests
system.switch_cpus0.idle_fraction            0.020545                       # Percentage of idle cycles
system.switch_cpus0.itb.rdAccesses                  0                       # TLB accesses on read requests
system.switch_cpus0.itb.rdMisses                    0                       # TLB misses on read requests
system.switch_cpus0.itb.wrAccesses         7848974494                       # TLB accesses on write requests
system.switch_cpus0.itb.wrMisses                18622                       # TLB misses on write requests
system.switch_cpus0.kern.inst.arm                   0                       # number of arm instructions executed
system.switch_cpus0.kern.inst.quiesce               0                       # number of quiesce instructions executed
system.switch_cpus0.not_idle_fraction        0.979455                       # Percentage of non-idle cycles
system.switch_cpus0.numCycles             24609803110                       # number of cpu cycles simulated
system.switch_cpus0.numWorkItemsCompleted            0                       # number of work items this cpu completed
system.switch_cpus0.numWorkItemsStarted             0                       # number of work items this cpu started
system.switch_cpus0.num_busy_cycles      24104203964.020626                       # Number of busy cycles
system.switch_cpus0.num_cc_register_reads   4803613068                       # number of times the CC registers were read
system.switch_cpus0.num_cc_register_writes   4179872251                       # number of times the CC registers were written
system.switch_cpus0.num_conditional_control_insts    655556615                       # number of instructions that are conditional controls
system.switch_cpus0.num_fp_alu_accesses    3962293403                       # Number of float alu accesses
system.switch_cpus0.num_fp_insts           3962293403                       # number of float instructions
system.switch_cpus0.num_fp_register_reads   5553204674                       # number of times the floating registers were read
system.switch_cpus0.num_fp_register_writes   3233880251                       # number of times the floating registers were written
system.switch_cpus0.num_func_calls            3335336                       # number of times a function call or return occured
system.switch_cpus0.num_idle_cycles      505599145.979373                       # Number of idle cycles
system.switch_cpus0.num_int_alu_accesses   8888430081                       # Number of integer alu accesses
system.switch_cpus0.num_int_insts          8888430081                       # number of integer instructions
system.switch_cpus0.num_int_register_reads  18103662299                       # number of times the integer registers were read
system.switch_cpus0.num_int_register_writes   5852716981                       # number of times the integer registers were written
system.switch_cpus0.num_load_insts         2140558473                       # Number of load instructions
system.switch_cpus0.num_mem_refs           3032710063                       # number of memory refs
system.switch_cpus0.num_store_insts         892151590                       # Number of store instructions
system.switch_cpus0.num_vec_alu_accesses            0                       # Number of vector alu accesses
system.switch_cpus0.num_vec_insts                   0                       # number of vector instructions
system.switch_cpus0.num_vec_register_reads            0                       # number of times the vector registers were read
system.switch_cpus0.num_vec_register_writes            0                       # number of times the vector registers were written
system.switch_cpus0.op_class::No_OpClass      3548032      0.03%      0.03% # Class of executed instruction
system.switch_cpus0.op_class::IntAlu       5987583673     56.34%     56.38% # Class of executed instruction
system.switch_cpus0.op_class::IntMult          272859      0.00%     56.38% # Class of executed instruction
system.switch_cpus0.op_class::IntDiv          7701813      0.07%     56.45% # Class of executed instruction
system.switch_cpus0.op_class::FloatAdd       47066780      0.44%     56.90% # Class of executed instruction
system.switch_cpus0.op_class::FloatCmp              0      0.00%     56.90% # Class of executed instruction
system.switch_cpus0.op_class::FloatCvt           3472      0.00%     56.90% # Class of executed instruction
system.switch_cpus0.op_class::FloatMult             0      0.00%     56.90% # Class of executed instruction
system.switch_cpus0.op_class::FloatMultAcc            0      0.00%     56.90% # Class of executed instruction
system.switch_cpus0.op_class::FloatDiv              0      0.00%     56.90% # Class of executed instruction
system.switch_cpus0.op_class::FloatMisc             0      0.00%     56.90% # Class of executed instruction
system.switch_cpus0.op_class::FloatSqrt             0      0.00%     56.90% # Class of executed instruction
system.switch_cpus0.op_class::SimdAdd             422      0.00%     56.90% # Class of executed instruction
system.switch_cpus0.op_class::SimdAddAcc            0      0.00%     56.90% # Class of executed instruction
system.switch_cpus0.op_class::SimdAlu        91536451      0.86%     57.76% # Class of executed instruction
system.switch_cpus0.op_class::SimdCmp               0      0.00%     57.76% # Class of executed instruction
system.switch_cpus0.op_class::SimdCvt             160      0.00%     57.76% # Class of executed instruction
system.switch_cpus0.op_class::SimdMisc            172      0.00%     57.76% # Class of executed instruction
system.switch_cpus0.op_class::SimdMult              0      0.00%     57.76% # Class of executed instruction
system.switch_cpus0.op_class::SimdMultAcc            0      0.00%     57.76% # Class of executed instruction
system.switch_cpus0.op_class::SimdShift           210      0.00%     57.76% # Class of executed instruction
system.switch_cpus0.op_class::SimdShiftAcc            0      0.00%     57.76% # Class of executed instruction
system.switch_cpus0.op_class::SimdDiv               0      0.00%     57.76% # Class of executed instruction
system.switch_cpus0.op_class::SimdSqrt              0      0.00%     57.76% # Class of executed instruction
system.switch_cpus0.op_class::SimdFloatAdd    727882496      6.85%     64.61% # Class of executed instruction
system.switch_cpus0.op_class::SimdFloatAlu            0      0.00%     64.61% # Class of executed instruction
system.switch_cpus0.op_class::SimdFloatCmp            0      0.00%     64.61% # Class of executed instruction
system.switch_cpus0.op_class::SimdFloatCvt            0      0.00%     64.61% # Class of executed instruction
system.switch_cpus0.op_class::SimdFloatDiv       519936      0.00%     64.61% # Class of executed instruction
system.switch_cpus0.op_class::SimdFloatMisc            0      0.00%     64.61% # Class of executed instruction
system.switch_cpus0.op_class::SimdFloatMult    727882496      6.85%     71.46% # Class of executed instruction
system.switch_cpus0.op_class::SimdFloatMultAcc            0      0.00%     71.46% # Class of executed instruction
system.switch_cpus0.op_class::SimdFloatSqrt            0      0.00%     71.46% # Class of executed instruction
system.switch_cpus0.op_class::SimdReduceAdd            0      0.00%     71.46% # Class of executed instruction
system.switch_cpus0.op_class::SimdReduceAlu            0      0.00%     71.46% # Class of executed instruction
system.switch_cpus0.op_class::SimdReduceCmp            0      0.00%     71.46% # Class of executed instruction
system.switch_cpus0.op_class::SimdFloatReduceAdd            0      0.00%     71.46% # Class of executed instruction
system.switch_cpus0.op_class::SimdFloatReduceCmp            0      0.00%     71.46% # Class of executed instruction
system.switch_cpus0.op_class::SimdAes               0      0.00%     71.46% # Class of executed instruction
system.switch_cpus0.op_class::SimdAesMix            0      0.00%     71.46% # Class of executed instruction
system.switch_cpus0.op_class::SimdSha1Hash            0      0.00%     71.46% # Class of executed instruction
system.switch_cpus0.op_class::SimdSha1Hash2            0      0.00%     71.46% # Class of executed instruction
system.switch_cpus0.op_class::SimdSha256Hash            0      0.00%     71.46% # Class of executed instruction
system.switch_cpus0.op_class::SimdSha256Hash2            0      0.00%     71.46% # Class of executed instruction
system.switch_cpus0.op_class::SimdShaSigma2            0      0.00%     71.46% # Class of executed instruction
system.switch_cpus0.op_class::SimdShaSigma3            0      0.00%     71.46% # Class of executed instruction
system.switch_cpus0.op_class::SimdPredAlu            0      0.00%     71.46% # Class of executed instruction
system.switch_cpus0.op_class::MemRead       637998008      6.00%     77.47% # Class of executed instruction
system.switch_cpus0.op_class::MemWrite      163741958      1.54%     79.01% # Class of executed instruction
[...]
system.mem_ctrls1.llc.tags.occ_percent::total     0.538679                       # Average percentage of cache occupancy
system.mem_ctrls1.llc.tags.occ_task_id_blocks::1024       144561                       # Occupied blocks per task id
system.mem_ctrls1.llc.tags.age_task_id_blocks_1024::0           21                       # Occupied blocks per task id
system.mem_ctrls1.llc.tags.age_task_id_blocks_1024::1           50                       # Occupied blocks per task id
system.mem_ctrls1.llc.tags.age_task_id_blocks_1024::2           49                       # Occupied blocks per task id
system.mem_ctrls1.llc.tags.age_task_id_blocks_1024::3            1                       # Occupied blocks per task id
system.mem_ctrls1.llc.tags.age_task_id_blocks_1024::4       144440                       # Occupied blocks per task id
system.mem_ctrls1.llc.tags.occ_task_id_percent::1024     0.551456                       # Percentage of cache occupancy per task id
system.mem_ctrls1.llc.tags.tag_accesses     490032641                       # Number of tag accesses
system.mem_ctrls1.llc.tags.data_accesses     30618005                       # Number of data accesses
system.mem_ctrls1.llc.tags.power_state.pwrStateResidencyTicks::UNDEFINED 110193220720001                       # Cumulative time (in ticks) in various power states
system.mem_ctrls1.rank1.actEnergy           243781020                       # Energy for activate commands per rank (pJ)
system.mem_ctrls1.rank1.preEnergy           129561300                       # Energy for precharge commands per rank (pJ)
system.mem_ctrls1.rank1.readEnergy          512901900                       # Energy for read commands per rank (pJ)
system.mem_ctrls1.rank1.writeEnergy                 0                       # Energy for write commands per rank (pJ)
system.mem_ctrls1.rank1.refreshEnergy    971338333680.000122                       # Energy for refresh commands per rank (pJ)
system.mem_ctrls1.rank1.actBackEnergy    214065217410                       # Energy for active background per rank (pJ)
system.mem_ctrls1.rank1.preBackEnergy    4544816745600                       # Energy for precharge background per rank (pJ)
system.mem_ctrls1.rank1.actPowerDownEnergy            0                       # Energy for active power-down per rank (pJ)
system.mem_ctrls1.rank1.prePowerDownEnergy            0                       # Energy for precharge power-down per rank (pJ)
system.mem_ctrls1.rank1.selfRefreshEnergy            0                       # Energy for self refresh per rank (pJ)
system.mem_ctrls1.rank1.totalEnergy      5731106540910                       # Total energy per rank (pJ)
system.mem_ctrls1.rank1.averagePower       465.758016                       # Core power per rank (mW)
system.mem_ctrls1.rank1.totalIdleTime               0                       # Total Idle time Per DRAM Rank
system.mem_ctrls1.rank1.memoryStateTime::IDLE 11813323791751                       # Time in different power states
system.mem_ctrls1.rank1.memoryStateTime::REF 410887620000                       # Time in different power states
system.mem_ctrls1.rank1.memoryStateTime::SREF            0                       # Time in different power states
system.mem_ctrls1.rank1.memoryStateTime::PRE_PDN            0                       # Time in different power states
system.mem_ctrls1.rank1.memoryStateTime::ACT  80690143750                       # Time in different power states
system.mem_ctrls1.rank1.memoryStateTime::ACT_PDN            0                       # Time in different power states
system.mem_ctrls1.rank0.actEnergy           250321260                       # Energy for activate commands per rank (pJ)
system.mem_ctrls1.rank0.preEnergy           133048905                       # Energy for precharge commands per rank (pJ)
system.mem_ctrls1.rank0.readEnergy          519263640                       # Energy for read commands per rank (pJ)
system.mem_ctrls1.rank0.writeEnergy                 0                       # Energy for write commands per rank (pJ)
system.mem_ctrls1.rank0.refreshEnergy    971338333680.000122                       # Energy for refresh commands per rank (pJ)
system.mem_ctrls1.rank0.actBackEnergy    214372073490                       # Energy for active background per rank (pJ)
system.mem_ctrls1.rank0.preBackEnergy    4544558300160                       # Energy for precharge background per rank (pJ)
system.mem_ctrls1.rank0.actPowerDownEnergy            0                       # Energy for active power-down per rank (pJ)
system.mem_ctrls1.rank0.prePowerDownEnergy            0                       # Energy for precharge power-down per rank (pJ)
system.mem_ctrls1.rank0.selfRefreshEnergy            0                       # Energy for self refresh per rank (pJ)
system.mem_ctrls1.rank0.totalEnergy      5731171341135                       # Total energy per rank (pJ)
system.mem_ctrls1.rank0.averagePower       465.763283                       # Core power per rank (mW)
system.mem_ctrls1.rank0.totalIdleTime               0                       # Total Idle time Per DRAM Rank
system.mem_ctrls1.rank0.memoryStateTime::IDLE 11812632387002                       # Time in different power states
system.mem_ctrls1.rank0.memoryStateTime::REF 410887620000                       # Time in different power states
system.mem_ctrls1.rank0.memoryStateTime::SREF            0                       # Time in different power states
system.mem_ctrls1.rank0.memoryStateTime::PRE_PDN            0                       # Time in different power states
system.mem_ctrls1.rank0.memoryStateTime::ACT  81381548499                       # Time in different power states
system.mem_ctrls1.rank0.memoryStateTime::ACT_PDN            0                       # Time in different power states
system.mem_ctrls1.power_state.pwrStateResidencyTicks::UNDEFINED 110193220720001                       # Cumulative time (in ticks) in various power states
system.cpu_voltage_domain.voltage                   1                       # Voltage in Volts
system.iobus.trans_dist::ReadReq                 3067                       # Transaction distribution
system.iobus.trans_dist::ReadResp                3067                       # Transaction distribution
system.iobus.trans_dist::WriteReq               56735                       # Transaction distribution
system.iobus.trans_dist::WriteResp              56735                       # Transaction distribution
system.iobus.pkt_count_system.pc.south_bridge.io_apic.int_master::system.ruby.l1_cntrl1.sequencer.pio-slave-port          736                       # Packet count per connected master and slave (bytes)
system.iobus.pkt_count_system.pc.south_bridge.io_apic.int_master::total          736                       # Packet count per connected master and slave (bytes)
system.iobus.pkt_count_system.ruby.l1_cntrl0.sequencer.mem-master-port::system.pc.south_bridge.ide.pio         7684                       # Packet count per connected master and slave (bytes)
system.iobus.pkt_count_system.ruby.l1_cntrl0.sequencer.mem-master-port::system.pc.com_1.pio           18                       # Packet count per connected master and slave (bytes)
system.iobus.pkt_count_system.ruby.l1_cntrl0.sequencer.mem-master-port::system.ruby.l1_cntrl0.sequencer.pio-slave-port        26862                       # Packet count per connected master and slave (bytes)
system.iobus.pkt_count_system.ruby.l1_cntrl0.sequencer.mem-master-port::system.ruby.l1_cntrl1.sequencer.pio-slave-port          202                       # Packet count per connected master and slave (bytes)
system.iobus.pkt_count_system.ruby.l1_cntrl0.sequencer.mem-master-port::system.ruby.l1_cntrl2.sequencer.pio-slave-port          208                       # Packet count per connected master and slave (bytes)
system.iobus.pkt_count_system.ruby.l1_cntrl0.sequencer.mem-master-port::system.ruby.l1_cntrl3.sequencer.pio-slave-port          216                       # Packet count per connected master and slave (bytes)
system.iobus.pkt_count_system.ruby.l1_cntrl0.sequencer.mem-master-port::total        35190                       # Packet count per connected master and slave (bytes)
system.iobus.pkt_count_system.ruby.l1_cntrl1.sequencer.mem-master-port::system.pc.south_bridge.ide.pio         2760                       # Packet count per connected master and slave (bytes)
system.iobus.pkt_count_system.ruby.l1_cntrl1.sequencer.mem-master-port::system.pc.com_1.pio         1074                       # Packet count per connected master and slave (bytes)
system.iobus.pkt_count_system.ruby.l1_cntrl1.sequencer.mem-master-port::system.ruby.l1_cntrl0.sequencer.pio-slave-port          210                       # Packet count per connected master and slave (bytes)
system.iobus.pkt_count_system.ruby.l1_cntrl1.sequencer.mem-master-port::system.ruby.l1_cntrl1.sequencer.pio-slave-port        27170                       # Packet count per connected master and slave (bytes)
system.iobus.pkt_count_system.ruby.l1_cntrl1.sequencer.mem-master-port::system.ruby.l1_cntrl2.sequencer.pio-slave-port          192                       # Packet count per connected master and slave (bytes)
system.iobus.pkt_count_system.ruby.l1_cntrl1.sequencer.mem-master-port::system.ruby.l1_cntrl3.sequencer.pio-slave-port          180                       # Packet count per connected master and slave (bytes)
system.iobus.pkt_count_system.ruby.l1_cntrl1.sequencer.mem-master-port::total        31586                       # Packet count per connected master and slave (bytes)
system.iobus.pkt_count_system.ruby.l1_cntrl2.sequencer.mem-master-port::system.pc.south_bridge.ide.pio          136                       # Packet count per connected master and slave (bytes)
system.iobus.pkt_count_system.ruby.l1_cntrl2.sequencer.mem-master-port::system.ruby.l1_cntrl0.sequencer.pio-slave-port           78                       # Packet count per connected master and slave (bytes)
system.iobus.pkt_count_system.ruby.l1_cntrl2.sequencer.mem-master-port::system.ruby.l1_cntrl1.sequencer.pio-slave-port           68                       # Packet count per connected master and slave (bytes)
system.iobus.pkt_count_system.ruby.l1_cntrl2.sequencer.mem-master-port::system.ruby.l1_cntrl2.sequencer.pio-slave-port        25730                       # Packet count per connected master and slave (bytes)
system.iobus.pkt_count_system.ruby.l1_cntrl2.sequencer.mem-master-port::system.ruby.l1_cntrl3.sequencer.pio-slave-port           62                       # Packet count per connected master and slave (bytes)
system.iobus.pkt_count_system.ruby.l1_cntrl2.sequencer.mem-master-port::total        26074                       # Packet count per connected master and slave (bytes)
system.iobus.pkt_count_system.ruby.l1_cntrl3.sequencer.mem-master-port::system.ruby.l1_cntrl0.sequencer.pio-slave-port           78                       # Packet count per connected master and slave (bytes)
system.iobus.pkt_count_system.ruby.l1_cntrl3.sequencer.mem-master-port::system.ruby.l1_cntrl1.sequencer.pio-slave-port           74                       # Packet count per connected master and slave (bytes)
system.iobus.pkt_count_system.ruby.l1_cntrl3.sequencer.mem-master-port::system.ruby.l1_cntrl2.sequencer.pio-slave-port           82                       # Packet count per connected master and slave (bytes)
system.iobus.pkt_count_system.ruby.l1_cntrl3.sequencer.mem-master-port::system.ruby.l1_cntrl3.sequencer.pio-slave-port        25784                       # Packet count per connected master and slave (bytes)
system.iobus.pkt_count_system.ruby.l1_cntrl3.sequencer.mem-master-port::total        26018                       # Packet count per connected master and slave (bytes)
system.iobus.pkt_count::total                  119604                       # Packet count per connected master and slave (bytes)
system.iobus.pkt_size_system.pc.south_bridge.io_apic.int_master::system.ruby.l1_cntrl1.sequencer.pio-slave-port         1472                       # Cumulative packet size per connected master and slave (bytes)
system.iobus.pkt_size_system.pc.south_bridge.io_apic.int_master::total         1472                       # Cumulative packet size per connected master and slave (bytes)
system.iobus.pkt_size_system.ruby.l1_cntrl0.sequencer.mem-master-port::system.pc.south_bridge.ide.pio         4520                       # Cumulative packet size per connected master and slave (bytes)
system.iobus.pkt_size_system.ruby.l1_cntrl0.sequencer.mem-master-port::system.pc.com_1.pio            9                       # Cumulative packet size per connected master and slave (bytes)
system.iobus.pkt_size_system.ruby.l1_cntrl0.sequencer.mem-master-port::system.ruby.l1_cntrl0.sequencer.pio-slave-port        53724                       # Cumulative packet size per connected master and slave (bytes)
system.iobus.pkt_size_system.ruby.l1_cntrl0.sequencer.mem-master-port::system.ruby.l1_cntrl1.sequencer.pio-slave-port          404                       # Cumulative packet size per connected master and slave (bytes)
system.iobus.pkt_size_system.ruby.l1_cntrl0.sequencer.mem-master-port::system.ruby.l1_cntrl2.sequencer.pio-slave-port          416                       # Cumulative packet size per connected master and slave (bytes)
system.iobus.pkt_size_system.ruby.l1_cntrl0.sequencer.mem-master-port::system.ruby.l1_cntrl3.sequencer.pio-slave-port          432                       # Cumulative packet size per connected master and slave (bytes)
system.iobus.pkt_size_system.ruby.l1_cntrl0.sequencer.mem-master-port::total        59505                       # Cumulative packet size per connected master and slave (bytes)
system.iobus.pkt_size_system.ruby.l1_cntrl1.sequencer.mem-master-port::system.pc.south_bridge.ide.pio         1380                       # Cumulative packet size per connected master and slave (bytes)
system.iobus.pkt_size_system.ruby.l1_cntrl1.sequencer.mem-master-port::system.pc.com_1.pio          537                       # Cumulative packet size per connected master and slave (bytes)
system.iobus.pkt_size_system.ruby.l1_cntrl1.sequencer.mem-master-port::system.ruby.l1_cntrl0.sequencer.pio-slave-port          420                       # Cumulative packet size per connected master and slave (bytes)
system.iobus.pkt_size_system.ruby.l1_cntrl1.sequencer.mem-master-port::system.ruby.l1_cntrl1.sequencer.pio-slave-port        54340                       # Cumulative packet size per connected master and slave (bytes)
system.iobus.pkt_size_system.ruby.l1_cntrl1.sequencer.mem-master-port::system.ruby.l1_cntrl2.sequencer.pio-slave-port          384                       # Cumulative packet size per connected master and slave (bytes)
system.iobus.pkt_size_system.ruby.l1_cntrl1.sequencer.mem-master-port::system.ruby.l1_cntrl3.sequencer.pio-slave-port          360                       # Cumulative packet size per connected master and slave (bytes)
system.iobus.pkt_size_system.ruby.l1_cntrl1.sequencer.mem-master-port::total        57421                       # Cumulative packet size per connected master and slave (bytes)
system.iobus.pkt_size_system.ruby.l1_cntrl2.sequencer.mem-master-port::system.pc.south_bridge.ide.pio           80                       # Cumulative packet size per connected master and slave (bytes)
system.iobus.pkt_size_system.ruby.l1_cntrl2.sequencer.mem-master-port::system.ruby.l1_cntrl0.sequencer.pio-slave-port          156                       # Cumulative packet size per connected master and slave (bytes)
system.iobus.pkt_size_system.ruby.l1_cntrl2.sequencer.mem-master-port::system.ruby.l1_cntrl1.sequencer.pio-slave-port          136                       # Cumulative packet size per connected master and slave (bytes)
system.iobus.pkt_size_system.ruby.l1_cntrl2.sequencer.mem-master-port::system.ruby.l1_cntrl2.sequencer.pio-slave-port        51460                       # Cumulative packet size per connected master and slave (bytes)
system.iobus.pkt_size_system.ruby.l1_cntrl2.sequencer.mem-master-port::system.ruby.l1_cntrl3.sequencer.pio-slave-port          124                       # Cumulative packet size per connected master and slave (bytes)
system.iobus.pkt_size_system.ruby.l1_cntrl2.sequencer.mem-master-port::total        51956                       # Cumulative packet size per connected master and slave (bytes)
system.iobus.pkt_size_system.ruby.l1_cntrl3.sequencer.mem-master-port::system.ruby.l1_cntrl0.sequencer.pio-slave-port          156                       # Cumulative packet size per connected master and slave (bytes)
system.iobus.pkt_size_system.ruby.l1_cntrl3.sequencer.mem-master-port::system.ruby.l1_cntrl1.sequencer.pio-slave-port          148                       # Cumulative packet size per connected master and slave (bytes)
system.iobus.pkt_size_system.ruby.l1_cntrl3.sequencer.mem-master-port::system.ruby.l1_cntrl2.sequencer.pio-slave-port          164                       # Cumulative packet size per connected master and slave (bytes)
system.iobus.pkt_size_system.ruby.l1_cntrl3.sequencer.mem-master-port::system.ruby.l1_cntrl3.sequencer.pio-slave-port        51568                       # Cumulative packet size per connected master and slave (bytes)
system.iobus.pkt_size_system.ruby.l1_cntrl3.sequencer.mem-master-port::total        52036                       # Cumulative packet size per connected master and slave (bytes)
system.iobus.pkt_size::total                   222390                       # Cumulative packet size per connected master and slave (bytes)
system.iobus.reqLayer2.occupancy              8871000                       # Layer occupancy (ticks)
system.iobus.reqLayer2.utilization                0.0                       # Layer utilization (%)
system.iobus.power_state.pwrStateResidencyTicks::UNDEFINED 110193220720001                       # Cumulative time (in ticks) in various power states
system.iobus.reqLayer19.occupancy            32393297                       # Layer occupancy (ticks)
system.iobus.reqLayer19.utilization               0.0                       # Layer utilization (%)
system.iobus.reqLayer17.occupancy            33222185                       # Layer occupancy (ticks)
system.iobus.reqLayer17.utilization               0.0                       # Layer utilization (%)
system.iobus.reqLayer12.occupancy              705000                       # Layer occupancy (ticks)
system.iobus.reqLayer12.utilization               0.0                       # Layer utilization (%)
system.iobus.reqLayer18.occupancy            34625043                       # Layer occupancy (ticks)
system.iobus.reqLayer18.utilization               0.0                       # Layer utilization (%)
system.iobus.respLayer9.occupancy            19572500                       # Layer occupancy (ticks)
system.iobus.respLayer9.utilization               0.0                       # Layer utilization (%)
system.iobus.respLayer5.occupancy            24196000                       # Layer occupancy (ticks)
system.iobus.respLayer5.utilization               0.0                       # Layer utilization (%)
system.iobus.respLayer7.occupancy            19589500                       # Layer occupancy (ticks)
system.iobus.respLayer7.utilization               0.0                       # Layer utilization (%)
system.iobus.respLayer0.occupancy              597270                       # Layer occupancy (ticks)
system.iobus.respLayer0.utilization               0.0                       # Layer utilization (%)
system.iobus.respLayer3.occupancy            25530000                       # Layer occupancy (ticks)
system.iobus.respLayer3.utilization               0.0                       # Layer utilization (%)
system.iobus.reqLayer20.occupancy            32298507                       # Layer occupancy (ticks)
system.iobus.reqLayer20.utilization               0.0                       # Layer utilization (%)

---------- End Simulation Statistics   ----------
