
---------- Begin Simulation Statistics ----------
final_tick                               100448244716001                       # Number of ticks from beginning of simulation (restored from checkpoints and never reset)
host_inst_rate                                 730279                       # Simulator instruction rate (inst/s)
host_mem_usage                                1798136                       # Number of bytes of host memory used
host_op_rate                                   879081                       # Simulator op (including micro ops) rate (op/s)
host_seconds                                  9309.83                       # Real time elapsed on the host
host_tick_rate                              125340865                       # Simulator tick rate (ticks/s)
sim_freq                                 1000000000000                       # Frequency of simulated ticks
sim_insts                                  6798767385                       # Number of instructions simulated
sim_ops                                    8184091616                       # Number of ops (including micro ops) simulated
sim_seconds                                  1.166902                       # Number of seconds simulated
sim_ticks                                1166901707501                       # Number of ticks simulated
system.cpu0.committedInsts                          0                       # Number of instructions committed
system.cpu0.dtb.rdAccesses                          0                       # TLB accesses on read requests
system.cpu0.dtb.rdMisses                            0                       # TLB misses on read requests
system.cpu0.dtb.wrAccesses                          0                       # TLB accesses on write requests
system.cpu0.dtb.wrMisses                            0                       # TLB misses on write requests
system.cpu0.itb.rdAccesses                          0                       # TLB accesses on read requests
system.cpu0.itb.rdMisses                            0                       # TLB misses on read requests
system.cpu0.itb.wrAccesses                          0                       # TLB accesses on write requests
system.cpu0.itb.wrMisses                            0                       # TLB misses on write requests
system.cpu0.kern.inst.arm                           0                       # number of arm instructions executed
system.cpu0.kern.inst.quiesce                       0                       # number of quiesce instructions executed
system.cpu0.numCoalescedMMIO                        0                       # number of coalesced memory mapped IO requests
system.cpu0.numCycles                               0                       # number of cpu cycles simulated
system.cpu0.numExitSignal                           0                       # exits due to signal delivery
system.cpu0.numHalt                                 0                       # number of VM exits due to wait for interrupt instructions
system.cpu0.numHypercalls                           0                       # number of hypercalls
system.cpu0.numIO                                   0                       # number of VM exits due to legacy IO
system.cpu0.numInterrupts                           0                       # number of interrupts delivered
system.cpu0.numMMIO                                 0                       # number of VM exits due to memory mapped IO
system.cpu0.numVMExits                              0                       # total number of KVM exits
system.cpu0.numVMHalfEntries                        0                       # number of KVM entries to finalize pending operations
system.cpu0.numWorkItemsCompleted                   0                       # number of work items this cpu completed
system.cpu0.numWorkItemsStarted                     0                       # number of work items this cpu started
system.cpu1.committedInsts                          0                       # Number of instructions committed
system.cpu1.dtb.rdAccesses                          0                       # TLB accesses on read requests
system.cpu1.dtb.rdMisses                            0                       # TLB misses on read requests
system.cpu1.dtb.wrAccesses                          0                       # TLB accesses on write requests
system.cpu1.dtb.wrMisses                            0                       # TLB misses on write requests
system.cpu1.itb.rdAccesses                          0                       # TLB accesses on read requests
system.cpu1.itb.rdMisses                            0                       # TLB misses on read requests
system.cpu1.itb.wrAccesses                          0                       # TLB accesses on write requests
system.cpu1.itb.wrMisses                            0                       # TLB misses on write requests
system.cpu1.kern.inst.arm                           0                       # number of arm instructions executed
system.cpu1.kern.inst.quiesce                       0                       # number of quiesce instructions executed
system.cpu1.numCoalescedMMIO                        0                       # number of coalesced memory mapped IO requests
system.cpu1.numCycles                               0                       # number of cpu cycles simulated
system.cpu1.numExitSignal                           0                       # exits due to signal delivery
system.cpu1.numHalt                                 0                       # number of VM exits due to wait for interrupt instructions
system.cpu1.numHypercalls                           0                       # number of hypercalls
system.cpu1.numIO                                   0                       # number of VM exits due to legacy IO
system.cpu1.numInterrupts                           0                       # number of interrupts delivered
system.cpu1.numMMIO                                 0                       # number of VM exits due to memory mapped IO
system.cpu1.numVMExits                              0                       # total number of KVM exits
system.cpu1.numVMHalfEntries                        0                       # number of KVM entries to finalize pending operations
system.cpu1.numWorkItemsCompleted                   0                       # number of work items this cpu completed
system.cpu1.numWorkItemsStarted                     0                       # number of work items this cpu started
system.cpu2.committedInsts                          0                       # Number of instructions committed
system.cpu2.dtb.rdAccesses                          0                       # TLB accesses on read requests
system.cpu2.dtb.rdMisses                            0                       # TLB misses on read requests
system.cpu2.dtb.wrAccesses                          0                       # TLB accesses on write requests
system.cpu2.dtb.wrMisses                            0                       # TLB misses on write requests
system.cpu2.itb.rdAccesses                          0                       # TLB accesses on read requests
system.cpu2.itb.rdMisses                            0                       # TLB misses on read requests
system.cpu2.itb.wrAccesses                          0                       # TLB accesses on write requests
system.cpu2.itb.wrMisses                            0                       # TLB misses on write requests
system.cpu2.kern.inst.arm                           0                       # number of arm instructions executed
system.cpu2.kern.inst.quiesce                       0                       # number of quiesce instructions executed
system.cpu2.numCoalescedMMIO                        0                       # number of coalesced memory mapped IO requests
system.cpu2.numCycles                               0                       # number of cpu cycles simulated
system.cpu2.numExitSignal                           0                       # exits due to signal delivery
system.cpu2.numHalt                                 0                       # number of VM exits due to wait for interrupt instructions
system.cpu2.numHypercalls                           0                       # number of hypercalls
system.cpu2.numIO                                   0                       # number of VM exits due to legacy IO
system.cpu2.numInterrupts                           0                       # number of interrupts delivered
system.cpu2.numMMIO                                 0                       # number of VM exits due to memory mapped IO
system.cpu2.numVMExits                              0                       # total number of KVM exits
system.cpu2.numVMHalfEntries                        0                       # number of KVM entries to finalize pending operations
system.cpu2.numWorkItemsCompleted                   0                       # number of work items this cpu completed
system.cpu2.numWorkItemsStarted                     0                       # number of work items this cpu started
system.cpu3.committedInsts                          0                       # Number of instructions committed
system.cpu3.dtb.rdAccesses                          0                       # TLB accesses on read requests
system.cpu3.dtb.rdMisses                            0                       # TLB misses on read requests
system.cpu3.dtb.wrAccesses                          0                       # TLB accesses on write requests
system.cpu3.dtb.wrMisses                            0                       # TLB misses on write requests
system.cpu3.itb.rdAccesses                          0                       # TLB accesses on read requests
system.cpu3.itb.rdMisses                            0                       # TLB misses on read requests
system.cpu3.itb.wrAccesses                          0                       # TLB accesses on write requests
system.cpu3.itb.wrMisses                            0                       # TLB misses on write requests
system.cpu3.kern.inst.arm                           0                       # number of arm instructions executed
system.cpu3.kern.inst.quiesce                       0                       # number of quiesce instructions executed
system.cpu3.numCoalescedMMIO                        0                       # number of coalesced memory mapped IO requests
system.cpu3.numCycles                               0                       # number of cpu cycles simulated
system.cpu3.numExitSignal                           0                       # exits due to signal delivery
system.cpu3.numHalt                                 0                       # number of VM exits due to wait for interrupt instructions
system.cpu3.numHypercalls                           0                       # number of hypercalls
system.cpu3.numIO                                   0                       # number of VM exits due to legacy IO
system.cpu3.numInterrupts                           0                       # number of interrupts delivered
system.cpu3.numMMIO                                 0                       # number of VM exits due to memory mapped IO
system.cpu3.numVMExits                              0                       # total number of KVM exits
system.cpu3.numVMHalfEntries                        0                       # number of KVM entries to finalize pending operations
system.cpu3.numWorkItemsCompleted                   0                       # number of work items this cpu completed
system.cpu3.numWorkItemsStarted                     0                       # number of work items this cpu started
system.pc.south_bridge.ide.disks.dma_read_bytes       708608                       # Number of bytes transfered via DMA reads (not PRD).
system.pc.south_bridge.ide.disks.dma_read_full_pages          173                       # Number of full page size DMA reads (not PRD).
system.pc.south_bridge.ide.disks.dma_read_txs          173                       # Number of DMA read transactions (not PRD).
system.pc.south_bridge.ide.disks.dma_write_bytes       425984                       # Number of bytes transfered via DMA writes.
system.pc.south_bridge.ide.disks.dma_write_full_pages          104                       # Number of full page size DMA writes.
system.pc.south_bridge.ide.disks.dma_write_txs          104                       # Number of DMA write transactions.
system.ruby.DMA_Controller.I.allocI_load |       11142    100.00%    100.00% |           0      0.00%    100.00%
system.ruby.DMA_Controller.I.allocI_load::total        11142                      
system.ruby.DMA_Controller.I.allocI_store |        6656    100.00%    100.00% |           0      0.00%    100.00%
system.ruby.DMA_Controller.I.allocI_store::total         6656                      
system.ruby.DMA_Controller.I.deallocfwdfrom_in |       16780    100.00%    100.00% |           0      0.00%    100.00%
system.ruby.DMA_Controller.I.deallocfwdfrom_in::total        16780                      
system.ruby.DMA_Controller.M.allocTBE    |        6656    100.00%    100.00% |           0      0.00%    100.00%
system.ruby.DMA_Controller.M.allocTBE::total         6656                      
system.ruby.DMA_Controller.M.externalstoreMrespfrom_in |        6656    100.00%    100.00% |           0      0.00%    100.00%
system.ruby.DMA_Controller.M.externalstoreMrespfrom_in::total         6656                      
system.ruby.DMA_Controller.M_evict.Stallmandatory_in |      361817    100.00%    100.00% |           0      0.00%    100.00%
system.ruby.DMA_Controller.M_evict.Stallmandatory_in::total       361817                      
system.ruby.DMA_Controller.S.SloadSEvent |          84    100.00%    100.00% |           0      0.00%    100.00%
system.ruby.DMA_Controller.S.SloadSEvent::total           84                      
system.ruby.DMA_Controller.S.allocTBE    |       10147    100.00%    100.00% |           0      0.00%    100.00%
system.ruby.DMA_Controller.S.allocTBE::total        10147                      
system.ruby.DMA_Controller.S.deallocTBE  |          22    100.00%    100.00% |           0      0.00%    100.00%
system.ruby.DMA_Controller.S.deallocTBE::total           22                      
system.ruby.DMA_Controller.S.externalloadSrespfrom_in |       11142    100.00%    100.00% |           0      0.00%    100.00%
system.ruby.DMA_Controller.S.externalloadSrespfrom_in::total        11142                      
system.ruby.DMA_Controller.S_evict.Stallmandatory_in |       30519    100.00%    100.00% |           0      0.00%    100.00%
system.ruby.DMA_Controller.S_evict.Stallmandatory_in::total        30519                      
system.ruby.DMA_Controller.SloadSEvent   |          84    100.00%    100.00% |           0      0.00%    100.00%
system.ruby.DMA_Controller.SloadSEvent::total           84                      
system.ruby.DMA_Controller.Stallmandatory_in |      392336    100.00%    100.00% |           0      0.00%    100.00%
system.ruby.DMA_Controller.Stallmandatory_in::total       392336                      
system.ruby.DMA_Controller.allocI_load   |       11142    100.00%    100.00% |           0      0.00%    100.00%
system.ruby.DMA_Controller.allocI_load::total        11142                      
system.ruby.DMA_Controller.allocI_store  |        6656    100.00%    100.00% |           0      0.00%    100.00%
system.ruby.DMA_Controller.allocI_store::total         6656                      
system.ruby.DMA_Controller.allocTBE      |       16803    100.00%    100.00% |           0      0.00%    100.00%
system.ruby.DMA_Controller.allocTBE::total        16803                      
system.ruby.DMA_Controller.deallocTBE    |          22    100.00%    100.00% |           0      0.00%    100.00%
system.ruby.DMA_Controller.deallocTBE::total           22                      
system.ruby.DMA_Controller.deallocfwdfrom_in |       16780    100.00%    100.00% |           0      0.00%    100.00%
system.ruby.DMA_Controller.deallocfwdfrom_in::total        16780                      
system.ruby.DMA_Controller.externalloadSrespfrom_in |       11142    100.00%    100.00% |           0      0.00%    100.00%
system.ruby.DMA_Controller.externalloadSrespfrom_in::total        11142                      
system.ruby.DMA_Controller.externalstoreMrespfrom_in |        6656    100.00%    100.00% |           0      0.00%    100.00%
system.ruby.DMA_Controller.externalstoreMrespfrom_in::total         6656                      
system.ruby.Directory_Controller.I.allocTBE |     2788173     24.63%     24.63% |     2822901     24.94%     49.57% |     2900551     25.62%     75.19% |     2808882     24.81%    100.00%
system.ruby.Directory_Controller.I.allocTBE::total     11320507                      
system.ruby.Directory_Controller.I.deallocTBE |     2787216     24.63%     24.63% |     2821932     24.94%     49.57% |     2899619     25.62%     75.19% |     2807899     24.81%    100.00%
system.ruby.Directory_Controller.I.deallocTBE::total     11316666                      
system.ruby.Directory_Controller.I_GetSL1C1_0.Stallreqto_in |         152     34.00%     34.00% |         195     43.62%     77.63% |          23      5.15%     82.77% |          77     17.23%    100.00%
system.ruby.Directory_Controller.I_GetSL1C1_0.Stallreqto_in::total          447                      
system.ruby.Directory_Controller.M.allocTBE |     1698505     24.84%     24.84% |     1713612     25.06%     49.90% |     1724379     25.22%     75.12% |     1700938     24.88%    100.00%
system.ruby.Directory_Controller.M.allocTBE::total      6837434                      
system.ruby.Directory_Controller.M.deallocTBE |     1698650     24.84%     24.84% |     1713775     25.06%     49.90% |     1724536     25.22%     75.12% |     1701100     24.88%    100.00%
system.ruby.Directory_Controller.M.deallocTBE::total      6838061                      
system.ruby.Directory_Controller.M_GetS.Progress |        3137     30.17%     30.17% |        2566     24.68%     54.85% |        2733     26.29%     81.14% |        1961     18.86%    100.00%
system.ruby.Directory_Controller.M_GetS.Progress::total        10397                      
system.ruby.Directory_Controller.M_GetS.Stallreqto_in |         120     25.26%     25.26% |         164     34.53%     59.79% |         118     24.84%     84.63% |          73     15.37%    100.00%
system.ruby.Directory_Controller.M_GetS.Stallreqto_in::total          475                      
system.ruby.Directory_Controller.M_GetS_WBL1C1_0.Stallreqto_in |         322     17.79%     17.79% |         983     54.31%     72.10% |         318     17.57%     89.67% |         187     10.33%    100.00%
system.ruby.Directory_Controller.M_GetS_WBL1C1_0.Stallreqto_in::total         1810                      
system.ruby.Directory_Controller.M_PutML1C1_0.Stallreqto_in |           0      0.00%      0.00% |           2    100.00%    100.00% |           0      0.00%    100.00% |           0      0.00%    100.00%
system.ruby.Directory_Controller.M_PutML1C1_0.Stallreqto_in::total            2                      
system.ruby.Directory_Controller.Progress |        3137     30.17%     30.17% |        2566     24.68%     54.85% |        2733     26.29%     81.14% |        1961     18.86%    100.00%
system.ruby.Directory_Controller.Progress::total        10397                      
system.ruby.Directory_Controller.S.allocTBE |     2223690     25.11%     25.11% |     2217343     25.03%     50.14% |     2308254     26.06%     76.20% |     2107708     23.80%    100.00%
system.ruby.Directory_Controller.S.allocTBE::total      8856995                      
system.ruby.Directory_Controller.S.deallocTBE |     2224502     25.11%     25.11% |     2218149     25.03%     50.14% |     2309029     26.06%     76.20% |     2108529     23.80%    100.00%
system.ruby.Directory_Controller.S.deallocTBE::total      8860209                      
system.ruby.Directory_Controller.S_GetML1C1_0.Stallreqto_in |           7     31.82%     31.82% |          12     54.55%     86.36% |           3     13.64%    100.00% |           0      0.00%    100.00%
system.ruby.Directory_Controller.S_GetML1C1_0.Stallreqto_in::total           22                      
system.ruby.Directory_Controller.S_GetML1C1_1.Stallreqto_in |           0      0.00%      0.00% |           4    100.00%    100.00% |           0      0.00%    100.00% |           0      0.00%    100.00%
system.ruby.Directory_Controller.S_GetML1C1_1.Stallreqto_in::total            4                      
system.ruby.Directory_Controller.S_GetSL1C1_0.Stallreqto_in |         310     29.19%     29.19% |         281     26.46%     55.65% |         251     23.63%     79.28% |         220     20.72%    100.00%
system.ruby.Directory_Controller.S_GetSL1C1_0.Stallreqto_in::total         1062                      
system.ruby.Directory_Controller.Stallreqto_in |         911     23.84%     23.84% |        1641     42.94%     66.77% |         713     18.66%     85.43% |         557     14.57%    100.00%
system.ruby.Directory_Controller.Stallreqto_in::total         3822                      
system.ruby.Directory_Controller.allocTBE |     6710368     24.84%     24.84% |     6753856     25.00%     49.84% |     6933184     25.66%     75.50% |     6617528     24.50%    100.00%
system.ruby.Directory_Controller.allocTBE::total     27014936                      
system.ruby.Directory_Controller.deallocTBE |     6710368     24.84%     24.84% |     6753856     25.00%     49.84% |     6933184     25.66%     75.50% |     6617528     24.50%    100.00%
system.ruby.Directory_Controller.deallocTBE::total     27014936                      
system.ruby.IFETCH.hit_latency_hist_seqr::bucket_size            1                      
system.ruby.IFETCH.hit_latency_hist_seqr::max_bucket            9                      
system.ruby.IFETCH.hit_latency_hist_seqr::samples   2623346037                      
system.ruby.IFETCH.hit_latency_hist_seqr |  2623346037    100.00%    100.00% |           0      0.00%    100.00% |           0      0.00%    100.00% |           0      0.00%    100.00% |           0      0.00%    100.00% |           0      0.00%    100.00% |           0      0.00%    100.00% |           0      0.00%    100.00% |           0      0.00%    100.00% |           0      0.00%    100.00%
system.ruby.IFETCH.hit_latency_hist_seqr::total   2623346037                      
system.ruby.IFETCH.latency_hist_seqr::bucket_size            1                      
system.ruby.IFETCH.latency_hist_seqr::max_bucket            9                      
system.ruby.IFETCH.latency_hist_seqr::samples   2625583885                      
system.ruby.IFETCH.latency_hist_seqr     |  2625583885    100.00%    100.00% |           0      0.00%    100.00% |           0      0.00%    100.00% |           0      0.00%    100.00% |           0      0.00%    100.00% |           0      0.00%    100.00% |           0      0.00%    100.00% |           0      0.00%    100.00% |           0      0.00%    100.00% |           0      0.00%    100.00%
system.ruby.IFETCH.latency_hist_seqr::total   2625583885                      
system.ruby.IFETCH.miss_latency_hist_seqr::bucket_size            1                      
system.ruby.IFETCH.miss_latency_hist_seqr::max_bucket            9                      
system.ruby.IFETCH.miss_latency_hist_seqr::samples      2237848                      
system.ruby.IFETCH.miss_latency_hist_seqr |     2237848    100.00%    100.00% |           0      0.00%    100.00% |           0      0.00%    100.00% |           0      0.00%    100.00% |           0      0.00%    100.00% |           0      0.00%    100.00% |           0      0.00%    100.00% |           0      0.00%    100.00% |           0      0.00%    100.00% |           0      0.00%    100.00%
system.ruby.IFETCH.miss_latency_hist_seqr::total      2237848                      
system.ruby.L1Cache_Controller.I.allocI_load |     2038290     28.19%     28.19% |     1834266     25.37%     53.57% |     1266067     17.51%     71.08% |     2090861     28.92%    100.00%
system.ruby.L1Cache_Controller.I.allocI_load::total      7229484                      
system.ruby.L1Cache_Controller.I.allocI_store |     2040741     35.71%     35.71% |     1099125     19.23%     54.94% |     1246375     21.81%     76.75% |     1328596     23.25%    100.00%
system.ruby.L1Cache_Controller.I.allocI_store::total      5714837                      
system.ruby.L1Cache_Controller.I.deallocfwdfrom_in |     4078025     31.51%     31.51% |     2932400     22.66%     54.18% |     2511422     19.41%     73.58% |     3418456     26.42%    100.00%
system.ruby.L1Cache_Controller.I.deallocfwdfrom_in::total     12940303                      
system.ruby.L1Cache_Controller.I_store.Progress |        6156     93.83%     93.83% |         160      2.44%     96.27% |          96      1.46%     97.73% |         149      2.27%    100.00%
system.ruby.L1Cache_Controller.I_store.Progress::total         6561                      
system.ruby.L1Cache_Controller.I_store.Stallfwdfrom_in |           9     39.13%     39.13% |           9     39.13%     78.26% |           1      4.35%     82.61% |           4     17.39%    100.00%
system.ruby.L1Cache_Controller.I_store.Stallfwdfrom_in::total           23                      
system.ruby.L1Cache_Controller.M.MloadMEvent |   102661171     27.98%     27.98% |    80446285     21.92%     49.90% |   102036077     27.81%     77.71% |    81787144     22.29%    100.00%
system.ruby.L1Cache_Controller.M.MloadMEvent::total    366930677                      
system.ruby.L1Cache_Controller.M.MstoreMEvent |    35861867     30.75%     30.75% |    25766720     22.09%     52.84% |    23230067     19.92%     72.75% |    31782550     27.25%    100.00%
system.ruby.L1Cache_Controller.M.MstoreMEvent::total    116641204                      
system.ruby.L1Cache_Controller.M.allocTBE |     2297960     33.64%     33.64% |     1474113     21.58%     55.22% |     1375351     20.13%     75.36% |     1683348     24.64%    100.00%
system.ruby.L1Cache_Controller.M.allocTBE::total      6830772                      
system.ruby.L1Cache_Controller.M.externalstoreMrespfrom_in |     2298132     33.64%     33.64% |     1474259     21.58%     55.22% |     1375508     20.14%     75.36% |     1683500     24.64%    100.00%
system.ruby.L1Cache_Controller.M.externalstoreMrespfrom_in::total      6831399                      
system.ruby.L1Cache_Controller.M_evict.Stallmandatory_in |         546     24.91%     24.91% |         347     15.83%     40.74% |         821     37.45%     78.19% |         478     21.81%    100.00%
system.ruby.L1Cache_Controller.M_evict.Stallmandatory_in::total         2192                      
system.ruby.L1Cache_Controller.MloadMEvent |   102661171     27.98%     27.98% |    80446285     21.92%     49.90% |   102036077     27.81%     77.71% |    81787144     22.29%    100.00%
system.ruby.L1Cache_Controller.MloadMEvent::total    366930677                      
system.ruby.L1Cache_Controller.MstoreMEvent |    35861867     30.75%     30.75% |    25766720     22.09%     52.84% |    23230067     19.92%     72.75% |    31782550     27.25%    100.00%
system.ruby.L1Cache_Controller.MstoreMEvent::total    116641204                      
system.ruby.L1Cache_Controller.Progress  |      271772     23.94%     23.94% |      376282     33.15%     57.10% |      130123     11.46%     68.56% |      356826     31.44%    100.00%
system.ruby.L1Cache_Controller.Progress::total      1135003                      
system.ruby.L1Cache_Controller.S.SloadSEvent |   741884480     26.51%     26.51% |   623594005     22.28%     48.80% |   757415023     27.07%     75.86% |   675386839     24.14%    100.00%
system.ruby.L1Cache_Controller.S.SloadSEvent::total   2798280347                      
system.ruby.L1Cache_Controller.S.allocTBE |     2043026     28.23%     28.23% |     1834746     25.35%     53.59% |     1266931     17.51%     71.09% |     2091760     28.91%    100.00%
system.ruby.L1Cache_Controller.S.allocTBE::total      7236463                      
system.ruby.L1Cache_Controller.S.deallocTBE |        5570     53.71%     53.71% |        1325     12.78%     66.49% |        1727     16.65%     83.14% |        1748     16.86%    100.00%
system.ruby.L1Cache_Controller.S.deallocTBE::total        10370                      
system.ruby.L1Cache_Controller.S.externalloadSrespfrom_in |     2038290     28.19%     28.19% |     1834266     25.37%     53.57% |     1266067     17.51%     71.08% |     2090861     28.92%    100.00%
system.ruby.L1Cache_Controller.S.externalloadSrespfrom_in::total      7229484                      
system.ruby.L1Cache_Controller.S_evict.Progress |           4     80.00%     80.00% |           1     20.00%    100.00% |           0      0.00%    100.00% |           0      0.00%    100.00%
system.ruby.L1Cache_Controller.S_evict.Progress::total            5                      
system.ruby.L1Cache_Controller.S_evict.Stallmandatory_in |         436     32.96%     32.96% |         183     13.83%     46.79% |         455     34.39%     81.18% |         249     18.82%    100.00%
system.ruby.L1Cache_Controller.S_evict.Stallmandatory_in::total         1323                      
system.ruby.L1Cache_Controller.S_evict_x_I.Progress |           0      0.00%      0.00% |           2     33.33%     33.33% |           3     50.00%     83.33% |           1     16.67%    100.00%
system.ruby.L1Cache_Controller.S_evict_x_I.Progress::total            6                      
system.ruby.L1Cache_Controller.S_evict_x_I.Stallmandatory_in |           0      0.00%      0.00% |           2     22.22%     22.22% |           6     66.67%     88.89% |           1     11.11%    100.00%
system.ruby.L1Cache_Controller.S_evict_x_I.Stallmandatory_in::total            9                      
system.ruby.L1Cache_Controller.S_store.Progress |      265611     23.54%     23.54% |      376118     33.33%     56.87% |      130022     11.52%     68.39% |      356676     31.61%    100.00%
system.ruby.L1Cache_Controller.S_store.Progress::total      1128427                      
system.ruby.L1Cache_Controller.S_store.Stallfwdfrom_in |          11     40.74%     40.74% |           1      3.70%     44.44% |           2      7.41%     51.85% |          13     48.15%    100.00%
system.ruby.L1Cache_Controller.S_store.Stallfwdfrom_in::total           27                      
system.ruby.L1Cache_Controller.S_store_GetM_Ack_AD.Progress |           1     25.00%     25.00% |           1     25.00%     50.00% |           2     50.00%    100.00% |           0      0.00%    100.00%
system.ruby.L1Cache_Controller.S_store_GetM_Ack_AD.Progress::total            4                      
system.ruby.L1Cache_Controller.S_store_GetM_Ack_AD.Stallfwdfrom_in |           3     75.00%     75.00% |           1     25.00%    100.00% |           0      0.00%    100.00% |           0      0.00%    100.00%
system.ruby.L1Cache_Controller.S_store_GetM_Ack_AD.Stallfwdfrom_in::total            4                      
system.ruby.L1Cache_Controller.SloadSEvent |   741884480     26.51%     26.51% |   623594005     22.28%     48.80% |   757415023     27.07%     75.86% |   675386839     24.14%    100.00%
system.ruby.L1Cache_Controller.SloadSEvent::total   2798280347                      
system.ruby.L1Cache_Controller.Stallfwdfrom_in |          23     42.59%     42.59% |          11     20.37%     62.96% |           3      5.56%     68.52% |          17     31.48%    100.00%
system.ruby.L1Cache_Controller.Stallfwdfrom_in::total           54                      
system.ruby.L1Cache_Controller.Stallmandatory_in |         982     27.87%     27.87% |         532     15.10%     42.96% |        1282     36.38%     79.34% |         728     20.66%    100.00%
system.ruby.L1Cache_Controller.Stallmandatory_in::total         3524                      
system.ruby.L1Cache_Controller.allocI_load |     2038290     28.19%     28.19% |     1834266     25.37%     53.57% |     1266067     17.51%     71.08% |     2090861     28.92%    100.00%
system.ruby.L1Cache_Controller.allocI_load::total      7229484                      
system.ruby.L1Cache_Controller.allocI_store |     2040741     35.71%     35.71% |     1099125     19.23%     54.94% |     1246375     21.81%     76.75% |     1328596     23.25%    100.00%
system.ruby.L1Cache_Controller.allocI_store::total      5714837                      
system.ruby.L1Cache_Controller.allocTBE  |     4340986     30.86%     30.86% |     3308859     23.52%     54.38% |     2642282     18.78%     73.16% |     3775108     26.84%    100.00%
system.ruby.L1Cache_Controller.allocTBE::total     14067235                      
system.ruby.L1Cache_Controller.deallocTBE |        5570     53.71%     53.71% |        1325     12.78%     66.49% |        1727     16.65%     83.14% |        1748     16.86%    100.00%
system.ruby.L1Cache_Controller.deallocTBE::total        10370                      
system.ruby.L1Cache_Controller.deallocfwdfrom_in |     4078025     31.51%     31.51% |     2932400     22.66%     54.18% |     2511422     19.41%     73.58% |     3418456     26.42%    100.00%
system.ruby.L1Cache_Controller.deallocfwdfrom_in::total     12940303                      
system.ruby.L1Cache_Controller.externalloadSrespfrom_in |     2038290     28.19%     28.19% |     1834266     25.37%     53.57% |     1266067     17.51%     71.08% |     2090861     28.92%    100.00%
system.ruby.L1Cache_Controller.externalloadSrespfrom_in::total      7229484                      
system.ruby.L1Cache_Controller.externalstoreMrespfrom_in |     2298132     33.64%     33.64% |     1474259     21.58%     55.22% |     1375508     20.14%     75.36% |     1683500     24.64%    100.00%
system.ruby.L1Cache_Controller.externalstoreMrespfrom_in::total      6831399                      
system.ruby.LD.hit_latency_hist_seqr::bucket_size            1                      
system.ruby.LD.hit_latency_hist_seqr::max_bucket            9                      
system.ruby.LD.hit_latency_hist_seqr::samples    541864987                      
system.ruby.LD.hit_latency_hist_seqr     |   541864987    100.00%    100.00% |           0      0.00%    100.00% |           0      0.00%    100.00% |           0      0.00%    100.00% |           0      0.00%    100.00% |           0      0.00%    100.00% |           0      0.00%    100.00% |           0      0.00%    100.00% |           0      0.00%    100.00% |           0      0.00%    100.00%
system.ruby.LD.hit_latency_hist_seqr::total    541864987                      
system.ruby.LD.latency_hist_seqr::bucket_size            1                      
system.ruby.LD.latency_hist_seqr::max_bucket            9                      
system.ruby.LD.latency_hist_seqr::samples    546856623                      
system.ruby.LD.latency_hist_seqr         |   546856623    100.00%    100.00% |           0      0.00%    100.00% |           0      0.00%    100.00% |           0      0.00%    100.00% |           0      0.00%    100.00% |           0      0.00%    100.00% |           0      0.00%    100.00% |           0      0.00%    100.00% |           0      0.00%    100.00% |           0      0.00%    100.00%
system.ruby.LD.latency_hist_seqr::total     546856623                      
system.ruby.LD.miss_latency_hist_seqr::bucket_size            1                      
system.ruby.LD.miss_latency_hist_seqr::max_bucket            9                      
system.ruby.LD.miss_latency_hist_seqr::samples      4991636                      
system.ruby.LD.miss_latency_hist_seqr    |     4991636    100.00%    100.00% |           0      0.00%    100.00% |           0      0.00%    100.00% |           0      0.00%    100.00% |           0      0.00%    100.00% |           0      0.00%    100.00% |           0      0.00%    100.00% |           0      0.00%    100.00% |           0      0.00%    100.00% |           0      0.00%    100.00%
system.ruby.LD.miss_latency_hist_seqr::total      4991636                      
system.ruby.Locked_RMW_Read.hit_latency_hist_seqr::bucket_size            1                      
system.ruby.Locked_RMW_Read.hit_latency_hist_seqr::max_bucket            9                      
system.ruby.Locked_RMW_Read.hit_latency_hist_seqr::samples        78911                      
system.ruby.Locked_RMW_Read.hit_latency_hist_seqr |       78911    100.00%    100.00% |           0      0.00%    100.00% |           0      0.00%    100.00% |           0      0.00%    100.00% |           0      0.00%    100.00% |           0      0.00%    100.00% |           0      0.00%    100.00% |           0      0.00%    100.00% |           0      0.00%    100.00% |           0      0.00%    100.00%
system.ruby.Locked_RMW_Read.hit_latency_hist_seqr::total        78911                      
system.ruby.Locked_RMW_Read.latency_hist_seqr::bucket_size            1                      
system.ruby.Locked_RMW_Read.latency_hist_seqr::max_bucket            9                      
system.ruby.Locked_RMW_Read.latency_hist_seqr::samples       110545                      
system.ruby.Locked_RMW_Read.latency_hist_seqr |      110545    100.00%    100.00% |           0      0.00%    100.00% |           0      0.00%    100.00% |           0      0.00%    100.00% |           0      0.00%    100.00% |           0      0.00%    100.00% |           0      0.00%    100.00% |           0      0.00%    100.00% |           0      0.00%    100.00% |           0      0.00%    100.00%
system.ruby.Locked_RMW_Read.latency_hist_seqr::total       110545                      
system.ruby.Locked_RMW_Read.miss_latency_hist_seqr::bucket_size            1                      
system.ruby.Locked_RMW_Read.miss_latency_hist_seqr::max_bucket            9                      
system.ruby.Locked_RMW_Read.miss_latency_hist_seqr::samples        31634                      
system.ruby.Locked_RMW_Read.miss_latency_hist_seqr |       31634    100.00%    100.00% |           0      0.00%    100.00% |           0      0.00%    100.00% |           0      0.00%    100.00% |           0      0.00%    100.00% |           0      0.00%    100.00% |           0      0.00%    100.00% |           0      0.00%    100.00% |           0      0.00%    100.00% |           0      0.00%    100.00%
system.ruby.Locked_RMW_Read.miss_latency_hist_seqr::total        31634                      
system.ruby.Locked_RMW_Write.hit_latency_hist_seqr::bucket_size            1                      
system.ruby.Locked_RMW_Write.hit_latency_hist_seqr::max_bucket            9                      
system.ruby.Locked_RMW_Write.hit_latency_hist_seqr::samples       110545                      
system.ruby.Locked_RMW_Write.hit_latency_hist_seqr |      110545    100.00%    100.00% |           0      0.00%    100.00% |           0      0.00%    100.00% |           0      0.00%    100.00% |           0      0.00%    100.00% |           0      0.00%    100.00% |           0      0.00%    100.00% |           0      0.00%    100.00% |           0      0.00%    100.00% |           0      0.00%    100.00%
system.ruby.Locked_RMW_Write.hit_latency_hist_seqr::total       110545                      
system.ruby.Locked_RMW_Write.latency_hist_seqr::bucket_size            1                      
system.ruby.Locked_RMW_Write.latency_hist_seqr::max_bucket            9                      
system.ruby.Locked_RMW_Write.latency_hist_seqr::samples       110545                      
system.ruby.Locked_RMW_Write.latency_hist_seqr |      110545    100.00%    100.00% |           0      0.00%    100.00% |           0      0.00%    100.00% |           0      0.00%    100.00% |           0      0.00%    100.00% |           0      0.00%    100.00% |           0      0.00%    100.00% |           0      0.00%    100.00% |           0      0.00%    100.00% |           0      0.00%    100.00%
system.ruby.Locked_RMW_Write.latency_hist_seqr::total       110545                      
system.ruby.RMW_Read.hit_latency_hist_seqr::bucket_size            1                      
system.ruby.RMW_Read.hit_latency_hist_seqr::max_bucket            9                      
system.ruby.RMW_Read.hit_latency_hist_seqr::samples      2688664                      
system.ruby.RMW_Read.hit_latency_hist_seqr |     2688664    100.00%    100.00% |           0      0.00%    100.00% |           0      0.00%    100.00% |           0      0.00%    100.00% |           0      0.00%    100.00% |           0      0.00%    100.00% |           0      0.00%    100.00% |           0      0.00%    100.00% |           0      0.00%    100.00% |           0      0.00%    100.00%
system.ruby.RMW_Read.hit_latency_hist_seqr::total      2688664                      
system.ruby.RMW_Read.latency_hist_seqr::bucket_size            1                      
system.ruby.RMW_Read.latency_hist_seqr::max_bucket            9                      
system.ruby.RMW_Read.latency_hist_seqr::samples      2757363                      
system.ruby.RMW_Read.latency_hist_seqr   |     2757363    100.00%    100.00% |           0      0.00%    100.00% |           0      0.00%    100.00% |           0      0.00%    100.00% |           0      0.00%    100.00% |           0      0.00%    100.00% |           0      0.00%    100.00% |           0      0.00%    100.00% |           0      0.00%    100.00% |           0      0.00%    100.00%
system.ruby.RMW_Read.latency_hist_seqr::total      2757363                      
system.ruby.RMW_Read.miss_latency_hist_seqr::bucket_size            1                      
system.ruby.RMW_Read.miss_latency_hist_seqr::max_bucket            9                      
system.ruby.RMW_Read.miss_latency_hist_seqr::samples        68699                      
system.ruby.RMW_Read.miss_latency_hist_seqr |       68699    100.00%    100.00% |           0      0.00%    100.00% |           0      0.00%    100.00% |           0      0.00%    100.00% |           0      0.00%    100.00% |           0      0.00%    100.00% |           0      0.00%    100.00% |           0      0.00%    100.00% |           0      0.00%    100.00% |           0      0.00%    100.00%
system.ruby.RMW_Read.miss_latency_hist_seqr::total        68699                      
system.ruby.ST.hit_latency_hist_seqr::bucket_size            1                      
system.ruby.ST.hit_latency_hist_seqr::max_bucket            9                      
system.ruby.ST.hit_latency_hist_seqr::samples    113763084                      
system.ruby.ST.hit_latency_hist_seqr     |   113763084    100.00%    100.00% |           0      0.00%    100.00% |           0      0.00%    100.00% |           0      0.00%    100.00% |           0      0.00%    100.00% |           0      0.00%    100.00% |           0      0.00%    100.00% |           0      0.00%    100.00% |           0      0.00%    100.00% |           0      0.00%    100.00%
system.ruby.ST.hit_latency_hist_seqr::total    113763084                      
system.ruby.ST.latency_hist_seqr::bucket_size            1                      
system.ruby.ST.latency_hist_seqr::max_bucket            9                      
system.ruby.ST.latency_hist_seqr::samples    120494150                      
system.ruby.ST.latency_hist_seqr         |   120494150    100.00%    100.00% |           0      0.00%    100.00% |           0      0.00%    100.00% |           0      0.00%    100.00% |           0      0.00%    100.00% |           0      0.00%    100.00% |           0      0.00%    100.00% |           0      0.00%    100.00% |           0      0.00%    100.00% |           0      0.00%    100.00%
system.ruby.ST.latency_hist_seqr::total     120494150                      
system.ruby.ST.miss_latency_hist_seqr::bucket_size            1                      
system.ruby.ST.miss_latency_hist_seqr::max_bucket            9                      
system.ruby.ST.miss_latency_hist_seqr::samples      6731066                      
system.ruby.ST.miss_latency_hist_seqr    |     6731066    100.00%    100.00% |           0      0.00%    100.00% |           0      0.00%    100.00% |           0      0.00%    100.00% |           0      0.00%    100.00% |           0      0.00%    100.00% |           0      0.00%    100.00% |           0      0.00%    100.00% |           0      0.00%    100.00% |           0      0.00%    100.00%
system.ruby.ST.miss_latency_hist_seqr::total      6731066                      
system.ruby.dir_cntrl0.fwdFrom.avg_buf_msgs     0.008287                       # Average number of messages in buffer
system.ruby.dir_cntrl0.fwdFrom.avg_stall_time  2999.977444                       # Average number of cycles messages are stalled in this MB
system.ruby.dir_cntrl0.reqTo.avg_buf_msgs     0.002879                       # Average number of messages in buffer
system.ruby.dir_cntrl0.reqTo.avg_stall_time  5470.598914                       # Average number of cycles messages are stalled in this MB
system.ruby.dir_cntrl0.requestToMemory.avg_buf_msgs     0.002223                       # Average number of messages in buffer
system.ruby.dir_cntrl0.requestToMemory.avg_stall_time   499.999998                       # Average number of cycles messages are stalled in this MB
system.ruby.dir_cntrl0.respFrom.avg_buf_msgs     0.009070                       # Average number of messages in buffer
system.ruby.dir_cntrl0.respFrom.avg_stall_time  3005.188047                       # Average number of cycles messages are stalled in this MB
system.ruby.dir_cntrl0.respTo.avg_buf_msgs     0.000001                       # Average number of messages in buffer
system.ruby.dir_cntrl0.respTo.avg_stall_time 23835.475213                       # Average number of cycles messages are stalled in this MB
system.ruby.dir_cntrl0.responseFromMemory.avg_buf_msgs     0.002227                       # Average number of messages in buffer
system.ruby.dir_cntrl0.responseFromMemory.avg_stall_time   499.999962                       # Average number of cycles messages are stalled in this MB
system.ruby.dir_cntrl1.fwdFrom.avg_buf_msgs     0.008324                       # Average number of messages in buffer
system.ruby.dir_cntrl1.fwdFrom.avg_stall_time  2999.985722                       # Average number of cycles messages are stalled in this MB
system.ruby.dir_cntrl1.reqTo.avg_buf_msgs     0.002901                       # Average number of messages in buffer
system.ruby.dir_cntrl1.reqTo.avg_stall_time  5349.776110                       # Average number of cycles messages are stalled in this MB
system.ruby.dir_cntrl1.requestToMemory.avg_buf_msgs     0.002242                       # Average number of messages in buffer
system.ruby.dir_cntrl1.requestToMemory.avg_stall_time   499.999953                       # Average number of cycles messages are stalled in this MB
system.ruby.dir_cntrl1.respFrom.avg_buf_msgs     0.009140                       # Average number of messages in buffer
system.ruby.dir_cntrl1.respFrom.avg_stall_time  3005.031526                       # Average number of cycles messages are stalled in this MB
system.ruby.dir_cntrl1.respTo.avg_buf_msgs     0.000001                       # Average number of messages in buffer
system.ruby.dir_cntrl1.respTo.avg_stall_time 24725.017295                       # Average number of cycles messages are stalled in this MB
system.ruby.dir_cntrl1.responseFromMemory.avg_buf_msgs     0.002246                       # Average number of messages in buffer
system.ruby.dir_cntrl1.responseFromMemory.avg_stall_time   499.999917                       # Average number of cycles messages are stalled in this MB
system.ruby.dir_cntrl2.fwdFrom.avg_buf_msgs     0.008550                       # Average number of messages in buffer
system.ruby.dir_cntrl2.fwdFrom.avg_stall_time  2999.969176                       # Average number of cycles messages are stalled in this MB
system.ruby.dir_cntrl2.reqTo.avg_buf_msgs     0.002974                       # Average number of messages in buffer
system.ruby.dir_cntrl2.reqTo.avg_stall_time  5314.866708                       # Average number of cycles messages are stalled in this MB
system.ruby.dir_cntrl2.requestToMemory.avg_buf_msgs     0.002285                       # Average number of messages in buffer
system.ruby.dir_cntrl2.requestToMemory.avg_stall_time   499.999749                       # Average number of cycles messages are stalled in this MB
system.ruby.dir_cntrl2.respFrom.avg_buf_msgs     0.009386                       # Average number of messages in buffer
system.ruby.dir_cntrl2.respFrom.avg_stall_time  3005.029453                       # Average number of cycles messages are stalled in this MB
system.ruby.dir_cntrl2.respTo.avg_buf_msgs     0.000001                       # Average number of messages in buffer
system.ruby.dir_cntrl2.respTo.avg_stall_time 24671.159224                       # Average number of cycles messages are stalled in this MB
system.ruby.dir_cntrl2.responseFromMemory.avg_buf_msgs     0.002290                       # Average number of messages in buffer
system.ruby.dir_cntrl2.responseFromMemory.avg_stall_time   499.999713                       # Average number of cycles messages are stalled in this MB
system.ruby.dir_cntrl3.fwdFrom.avg_buf_msgs     0.008162                       # Average number of messages in buffer
system.ruby.dir_cntrl3.fwdFrom.avg_stall_time  2999.972927                       # Average number of cycles messages are stalled in this MB
system.ruby.dir_cntrl3.reqTo.avg_buf_msgs     0.002838                       # Average number of messages in buffer
system.ruby.dir_cntrl3.reqTo.avg_stall_time  5392.666365                       # Average number of cycles messages are stalled in this MB
system.ruby.dir_cntrl3.requestToMemory.avg_buf_msgs     0.002205                       # Average number of messages in buffer
system.ruby.dir_cntrl3.requestToMemory.avg_stall_time   499.999907                       # Average number of cycles messages are stalled in this MB
system.ruby.dir_cntrl3.respFrom.avg_buf_msgs     0.008956                       # Average number of messages in buffer
system.ruby.dir_cntrl3.respFrom.avg_stall_time  3005.388138                       # Average number of cycles messages are stalled in this MB
system.ruby.dir_cntrl3.respTo.avg_buf_msgs     0.000001                       # Average number of messages in buffer
system.ruby.dir_cntrl3.respTo.avg_stall_time 25421.723810                       # Average number of cycles messages are stalled in this MB
system.ruby.dir_cntrl3.responseFromMemory.avg_buf_msgs     0.002209                       # Average number of messages in buffer
system.ruby.dir_cntrl3.responseFromMemory.avg_stall_time   499.999871                       # Average number of cycles messages are stalled in this MB
system.ruby.dma_cntrl0.cache.demand_accesses            0                       # Number of cache demand accesses
system.ruby.dma_cntrl0.cache.demand_hits            0                       # Number of cache demand hits
system.ruby.dma_cntrl0.cache.demand_misses            0                       # Number of cache demand misses
system.ruby.dma_cntrl0.fully_busy_cycles        73620                       # cycles for which number of transistions == max transitions
system.ruby.dma_cntrl0.fwdFrom.avg_buf_msgs     0.000007                       # Average number of messages in buffer
system.ruby.dma_cntrl0.fwdFrom.avg_stall_time  6055.438435                       # Average number of cycles messages are stalled in this MB
system.ruby.dma_cntrl0.mandatoryQueue.avg_buf_msgs     0.001988                       # Average number of messages in buffer
system.ruby.dma_cntrl0.mandatoryQueue.avg_stall_time 524341.622267                       # Average number of cycles messages are stalled in this MB
system.ruby.dma_cntrl0.reqTo.avg_buf_msgs     0.003399                       # Average number of messages in buffer
system.ruby.dma_cntrl0.reqTo.avg_stall_time 23960.604666                       # Average number of cycles messages are stalled in this MB
system.ruby.dma_cntrl0.respFrom.avg_buf_msgs     0.000008                       # Average number of messages in buffer
system.ruby.dma_cntrl0.respFrom.avg_stall_time 144581.313238                       # Average number of cycles messages are stalled in this MB
system.ruby.dma_cntrl0.respTo.avg_buf_msgs     0.000000                       # Average number of messages in buffer
system.ruby.dma_cntrl0.respTo.avg_stall_time   500.451012                       # Average number of cycles messages are stalled in this MB
system.ruby.hit_latency_hist_seqr::bucket_size            1                      
system.ruby.hit_latency_hist_seqr::max_bucket            9                      
system.ruby.hit_latency_hist_seqr::samples   3281852228                      
system.ruby.hit_latency_hist_seqr        |  3281852228    100.00%    100.00% |           0      0.00%    100.00% |           0      0.00%    100.00% |           0      0.00%    100.00% |           0      0.00%    100.00% |           0      0.00%    100.00% |           0      0.00%    100.00% |           0      0.00%    100.00% |           0      0.00%    100.00% |           0      0.00%    100.00%
system.ruby.hit_latency_hist_seqr::total   3281852228                      
system.ruby.io_controller.cache.demand_accesses            0                       # Number of cache demand accesses
system.ruby.io_controller.cache.demand_hits            0                       # Number of cache demand hits
system.ruby.io_controller.cache.demand_misses            0                       # Number of cache demand misses
system.ruby.l1_cntrl0.cache.demand_accesses            0                       # Number of cache demand accesses
system.ruby.l1_cntrl0.cache.demand_hits             0                       # Number of cache demand hits
system.ruby.l1_cntrl0.cache.demand_misses            0                       # Number of cache demand misses
system.ruby.l1_cntrl0.fully_busy_cycles             1                       # cycles for which number of transistions == max transitions
system.ruby.l1_cntrl0.fwdFrom.avg_buf_msgs     0.528731                       # Average number of messages in buffer
system.ruby.l1_cntrl0.fwdFrom.avg_stall_time  6506.648282                       # Average number of cycles messages are stalled in this MB
system.ruby.l1_cntrl0.mandatoryQueue.avg_buf_msgs     0.435949                       # Average number of messages in buffer
system.ruby.l1_cntrl0.mandatoryQueue.avg_stall_time  3037.347096                       # Average number of cycles messages are stalled in this MB
system.ruby.l1_cntrl0.reqTo.avg_buf_msgs     0.003606                       # Average number of messages in buffer
system.ruby.l1_cntrl0.reqTo.avg_stall_time   500.032219                       # Average number of cycles messages are stalled in this MB
system.ruby.l1_cntrl0.respFrom.avg_buf_msgs     0.001864                       # Average number of messages in buffer
system.ruby.l1_cntrl0.respFrom.avg_stall_time 16688.582585                       # Average number of cycles messages are stalled in this MB
system.ruby.l1_cntrl0.respTo.avg_buf_msgs     0.000008                       # Average number of messages in buffer
system.ruby.l1_cntrl0.respTo.avg_stall_time   930.454909                       # Average number of cycles messages are stalled in this MB
system.ruby.l1_cntrl1.cache.demand_accesses            0                       # Number of cache demand accesses
system.ruby.l1_cntrl1.cache.demand_hits             0                       # Number of cache demand hits
system.ruby.l1_cntrl1.cache.demand_misses            0                       # Number of cache demand misses
system.ruby.l1_cntrl1.fully_busy_cycles             3                       # cycles for which number of transistions == max transitions
system.ruby.l1_cntrl1.fwdFrom.avg_buf_msgs     0.846993                       # Average number of messages in buffer
system.ruby.l1_cntrl1.fwdFrom.avg_stall_time  6698.834821                       # Average number of cycles messages are stalled in this MB
system.ruby.l1_cntrl1.mandatoryQueue.avg_buf_msgs     0.353688                       # Average number of messages in buffer
system.ruby.l1_cntrl1.mandatoryQueue.avg_stall_time  2251.956104                       # Average number of cycles messages are stalled in this MB
system.ruby.l1_cntrl1.reqTo.avg_buf_msgs     0.002673                       # Average number of messages in buffer
system.ruby.l1_cntrl1.reqTo.avg_stall_time   500.018875                       # Average number of cycles messages are stalled in this MB
system.ruby.l1_cntrl1.respFrom.avg_buf_msgs     0.001418                       # Average number of messages in buffer
system.ruby.l1_cntrl1.respFrom.avg_stall_time 16921.602338                       # Average number of cycles messages are stalled in this MB
system.ruby.l1_cntrl1.respTo.avg_buf_msgs     0.000006                       # Average number of messages in buffer
system.ruby.l1_cntrl1.respTo.avg_stall_time   638.562825                       # Average number of cycles messages are stalled in this MB
system.ruby.l1_cntrl2.cache.demand_accesses            0                       # Number of cache demand accesses
system.ruby.l1_cntrl2.cache.demand_hits             0                       # Number of cache demand hits
system.ruby.l1_cntrl2.cache.demand_misses            0                       # Number of cache demand misses
system.ruby.l1_cntrl2.fully_busy_cycles             3                       # cycles for which number of transistions == max transitions
system.ruby.l1_cntrl2.fwdFrom.avg_buf_msgs     0.320460                       # Average number of messages in buffer
system.ruby.l1_cntrl2.fwdFrom.avg_stall_time  6488.920491                       # Average number of cycles messages are stalled in this MB
system.ruby.l1_cntrl2.mandatoryQueue.avg_buf_msgs     0.413889                       # Average number of messages in buffer
system.ruby.l1_cntrl2.mandatoryQueue.avg_stall_time  2035.275693                       # Average number of cycles messages are stalled in this MB
system.ruby.l1_cntrl2.reqTo.avg_buf_msgs     0.002206                       # Average number of messages in buffer
system.ruby.l1_cntrl2.reqTo.avg_stall_time   500.016719                       # Average number of cycles messages are stalled in this MB
system.ruby.l1_cntrl2.respFrom.avg_buf_msgs     0.001132                       # Average number of messages in buffer
system.ruby.l1_cntrl2.respFrom.avg_stall_time 16512.955481                       # Average number of cycles messages are stalled in this MB
system.ruby.l1_cntrl2.respTo.avg_buf_msgs     0.000006                       # Average number of messages in buffer
system.ruby.l1_cntrl2.respTo.avg_stall_time   539.684027                       # Average number of cycles messages are stalled in this MB
system.ruby.l1_cntrl3.cache.demand_accesses            0                       # Number of cache demand accesses
system.ruby.l1_cntrl3.cache.demand_hits             0                       # Number of cache demand hits
system.ruby.l1_cntrl3.cache.demand_misses            0                       # Number of cache demand misses
system.ruby.l1_cntrl3.fully_busy_cycles             2                       # cycles for which number of transistions == max transitions
system.ruby.l1_cntrl3.fwdFrom.avg_buf_msgs     1.912579                       # Average number of messages in buffer
system.ruby.l1_cntrl3.fwdFrom.avg_stall_time  6661.596385                       # Average number of cycles messages are stalled in this MB
system.ruby.l1_cntrl3.mandatoryQueue.avg_buf_msgs     0.385435                       # Average number of messages in buffer
system.ruby.l1_cntrl3.mandatoryQueue.avg_stall_time  2578.262766                       # Average number of cycles messages are stalled in this MB
system.ruby.l1_cntrl3.reqTo.avg_buf_msgs     0.003081                       # Average number of messages in buffer
system.ruby.l1_cntrl3.reqTo.avg_stall_time   500.015358                       # Average number of cycles messages are stalled in this MB
system.ruby.l1_cntrl3.respFrom.avg_buf_msgs     0.001618                       # Average number of messages in buffer
system.ruby.l1_cntrl3.respFrom.avg_stall_time 16624.245495                       # Average number of cycles messages are stalled in this MB
system.ruby.l1_cntrl3.respTo.avg_buf_msgs     0.000004                       # Average number of messages in buffer
system.ruby.l1_cntrl3.respTo.avg_stall_time   549.277099                       # Average number of cycles messages are stalled in this MB
system.ruby.latency_hist_seqr::bucket_size            1                      
system.ruby.latency_hist_seqr::max_bucket            9                      
system.ruby.latency_hist_seqr::samples     3295913111                      
system.ruby.latency_hist_seqr            |  3295913111    100.00%    100.00% |           0      0.00%    100.00% |           0      0.00%    100.00% |           0      0.00%    100.00% |           0      0.00%    100.00% |           0      0.00%    100.00% |           0      0.00%    100.00% |           0      0.00%    100.00% |           0      0.00%    100.00% |           0      0.00%    100.00%
system.ruby.latency_hist_seqr::total       3295913111                      
system.ruby.miss_latency_hist_seqr::bucket_size            1                      
system.ruby.miss_latency_hist_seqr::max_bucket            9                      
system.ruby.miss_latency_hist_seqr::samples     14060883                      
system.ruby.miss_latency_hist_seqr       |    14060883    100.00%    100.00% |           0      0.00%    100.00% |           0      0.00%    100.00% |           0      0.00%    100.00% |           0      0.00%    100.00% |           0      0.00%    100.00% |           0      0.00%    100.00% |           0      0.00%    100.00% |           0      0.00%    100.00% |           0      0.00%    100.00%
system.ruby.miss_latency_hist_seqr::total     14060883                      
system.ruby.network.average_flit_latency    17.026633                      
system.ruby.network.average_flit_network_latency    12.807848                      
system.ruby.network.average_flit_queueing_latency     4.218785                      
system.ruby.network.average_flit_vnet_latency |   15.383449                       |    5.016367                       |   11.326617                       |         nan                       |         nan                       |         nan                       |         nan                       |         nan                      
system.ruby.network.average_flit_vqueue_latency |    6.056191                       |    6.000000                       |    1.409745                       |         nan                       |         nan                       |         nan                       |         nan                       |         nan                      
system.ruby.network.average_hops             1.005370                      
system.ruby.network.average_packet_latency    16.517308                      
system.ruby.network.average_packet_network_latency    12.854991                      
system.ruby.network.average_packet_queueing_latency     3.662317                      
system.ruby.network.average_packet_vnet_latency |   25.364850                       |    5.016367                       |   10.084837                       |         nan                       |         nan                       |         nan                       |         nan                       |         nan                      
system.ruby.network.average_packet_vqueue_latency |    6.050909                       |    6.000000                       |    1.292851                       |         nan                       |         nan                       |         nan                       |         nan                       |         nan                      
system.ruby.network.avg_link_utilization     0.177382                      
system.ruby.network.avg_vc_load          |    0.067912     38.29%     38.29% |    0.007751      4.37%     42.66% |    0.007565      4.26%     46.92% |    0.007559      4.26%     51.18% |    0.012532      7.07%     58.25% |    0.001395      0.79%     59.03% |    0.001390      0.78%     59.82% |    0.001390      0.78%     60.60% |    0.051853     29.23%     89.83% |    0.006396      3.61%     93.44% |    0.005774      3.26%     96.69% |    0.005865      3.31%    100.00% |           0      0.00%    100.00% |           0      0.00%    100.00% |           0      0.00%    100.00% |           0      0.00%    100.00% |           0      0.00%    100.00% |           0      0.00%    100.00% |           0      0.00%    100.00% |           0      0.00%    100.00% |           0      0.00%    100.00% |           0      0.00%    100.00% |           0      0.00%    100.00% |           0      0.00%    100.00% |           0      0.00%    100.00% |           0      0.00%    100.00% |           0      0.00%    100.00% |           0      0.00%    100.00% |           0      0.00%    100.00% |           0      0.00%    100.00% |           0      0.00%    100.00% |           0      0.00%    100.00%
system.ruby.network.avg_vc_load::total       0.177382                      
system.ruby.network.ext_in_link_utilization    137744714                      
system.ruby.network.ext_out_link_utilization    137744714                      
system.ruby.network.flit_network_latency |  1083976456                       |    65049701                       |   615187197                       |           0                       |           0                       |           0                       |           0                       |           0                      
system.ruby.network.flit_queueing_latency |   426742309                       |    77804960                       |    76568067                       |           0                       |           0                       |           0                       |           0                       |           0                      
system.ruby.network.flits_injected       |    70463813     51.16%     51.16% |    12967493      9.41%     60.57% |    54313408     39.43%    100.00% |           0      0.00%    100.00% |           0      0.00%    100.00% |           0      0.00%    100.00% |           0      0.00%    100.00% |           0      0.00%    100.00%
system.ruby.network.flits_injected::total    137744714                      
system.ruby.network.flits_received       |    70463813     51.16%     51.16% |    12967493      9.41%     60.57% |    54313408     39.43%    100.00% |           0      0.00%    100.00% |           0      0.00%    100.00% |           0      0.00%    100.00% |           0      0.00%    100.00% |           0      0.00%    100.00%
system.ruby.network.flits_received::total    137744714                      
system.ruby.network.int_link_utilization    138484413                      
system.ruby.network.packet_network_latency |   357834650                       |    65049701                       |   272441238                       |           0                       |           0                       |           0                       |           0                       |           0                      
system.ruby.network.packet_queueing_latency |    85363201                       |    77804960                       |    34926283                       |           0                       |           0                       |           0                       |           0                       |           0                      
system.ruby.network.packets_injected     |    14107501     26.08%     26.08% |    12967493     23.97%     50.06% |    27014936     49.94%    100.00% |           0      0.00%    100.00% |           0      0.00%    100.00% |           0      0.00%    100.00% |           0      0.00%    100.00% |           0      0.00%    100.00%
system.ruby.network.packets_injected::total     54089930                      
system.ruby.network.packets_received     |    14107501     26.08%     26.08% |    12967493     23.97%     50.06% |    27014936     49.94%    100.00% |           0      0.00%    100.00% |           0      0.00%    100.00% |           0      0.00%    100.00% |           0      0.00%    100.00% |           0      0.00%    100.00%
system.ruby.network.packets_received::total     54089930                      
system.ruby.network.routers0.buffer_reads     74185541                      
system.ruby.network.routers0.buffer_writes     74185541                      
system.ruby.network.routers0.crossbar_activity     74185541                      
system.ruby.network.routers0.sw_input_arbiter_activity     74301179                      
system.ruby.network.routers0.sw_output_arbiter_activity     74185541                      
system.ruby.network.routers1.buffer_reads     68541118                      
system.ruby.network.routers1.buffer_writes     68541118                      
system.ruby.network.routers1.crossbar_activity     68541118                      
system.ruby.network.routers1.sw_input_arbiter_activity     68616807                      
system.ruby.network.routers1.sw_output_arbiter_activity     68541118                      
system.ruby.network.routers2.buffer_reads     64532039                      
system.ruby.network.routers2.buffer_writes     64532039                      
system.ruby.network.routers2.crossbar_activity     64532039                      
system.ruby.network.routers2.sw_input_arbiter_activity     64606809                      
system.ruby.network.routers2.sw_output_arbiter_activity     64532039                      
system.ruby.network.routers3.buffer_reads     68970429                      
system.ruby.network.routers3.buffer_writes     68970429                      
system.ruby.network.routers3.crossbar_activity     68970429                      
system.ruby.network.routers3.sw_input_arbiter_activity     69041871                      
system.ruby.network.routers3.sw_output_arbiter_activity     68970429                      
system.ruby.outstanding_req_hist_seqr::bucket_size            1                      
system.ruby.outstanding_req_hist_seqr::max_bucket            9                      
system.ruby.outstanding_req_hist_seqr::samples   3295913111                      
system.ruby.outstanding_req_hist_seqr::mean     1.001153                      
system.ruby.outstanding_req_hist_seqr::gmean     1.000800                      
system.ruby.outstanding_req_hist_seqr::stdev     0.033937                      
system.ruby.outstanding_req_hist_seqr    |           0      0.00%      0.00% |  3292112705     99.88%     99.88% |     3800406      0.12%    100.00% |           0      0.00%    100.00% |           0      0.00%    100.00% |           0      0.00%    100.00% |           0      0.00%    100.00% |           0      0.00%    100.00% |           0      0.00%    100.00% |           0      0.00%    100.00%
system.ruby.outstanding_req_hist_seqr::total   3295913111                      
system.switch_cpus0.Branches                 88585088                       # Number of branches fetched
system.switch_cpus0.committedInsts          493178042                       # Number of instructions committed
system.switch_cpus0.committedOps            865913868                       # Number of ops (including micro ops) committed
system.switch_cpus0.dtb.rdAccesses          149816191                       # TLB accesses on read requests
system.switch_cpus0.dtb.rdMisses               188350                       # TLB misses on read requests
system.switch_cpus0.dtb.wrAccesses           37087863                       # TLB accesses on write requests
system.switch_cpus0.dtb.wrMisses                42302                       # TLB misses on write requests
system.switch_cpus0.idle_fraction            0.024922                       # Percentage of idle cycles
system.switch_cpus0.itb.rdAccesses                  0                       # TLB accesses on read requests
system.switch_cpus0.itb.rdMisses                    0                       # TLB misses on read requests
system.switch_cpus0.itb.wrAccesses          697116544                       # TLB accesses on write requests
system.switch_cpus0.itb.wrMisses                16521                       # TLB misses on write requests
system.switch_cpus0.kern.inst.arm                   0                       # number of arm instructions executed
system.switch_cpus0.kern.inst.quiesce               0                       # number of quiesce instructions executed
system.switch_cpus0.not_idle_fraction        0.975078                       # Percentage of non-idle cycles
system.switch_cpus0.numCycles              2333604060                       # number of cpu cycles simulated
system.switch_cpus0.numWorkItemsCompleted            0                       # number of work items this cpu completed
system.switch_cpus0.numWorkItemsStarted             0                       # number of work items this cpu started
system.switch_cpus0.num_busy_cycles      2275447092.226362                       # Number of busy cycles
system.switch_cpus0.num_cc_register_reads    455235536                       # number of times the CC registers were read
system.switch_cpus0.num_cc_register_writes    258841484                       # number of times the CC registers were written
system.switch_cpus0.num_conditional_control_insts     76282560                       # number of instructions that are conditional controls
system.switch_cpus0.num_fp_alu_accesses     217520463                       # Number of float alu accesses
system.switch_cpus0.num_fp_insts            217520463                       # number of float instructions
system.switch_cpus0.num_fp_register_reads    296767507                       # number of times the floating registers were read
system.switch_cpus0.num_fp_register_writes    178216632                       # number of times the floating registers were written
system.switch_cpus0.num_func_calls            2470569                       # number of times a function call or return occured
system.switch_cpus0.num_idle_cycles      58156967.773638                       # Number of idle cycles
system.switch_cpus0.num_int_alu_accesses    727289098                       # Number of integer alu accesses
system.switch_cpus0.num_int_insts           727289098                       # number of integer instructions
system.switch_cpus0.num_int_register_reads   1494693152                       # number of times the integer registers were read
system.switch_cpus0.num_int_register_writes    544499240                       # number of times the integer registers were written
system.switch_cpus0.num_load_insts          148485177                       # Number of load instructions
system.switch_cpus0.num_mem_refs            185508309                       # number of memory refs
system.switch_cpus0.num_store_insts          37023132                       # Number of store instructions
system.switch_cpus0.num_vec_alu_accesses            0                       # Number of vector alu accesses
system.switch_cpus0.num_vec_insts                   0                       # number of vector instructions
system.switch_cpus0.num_vec_register_reads            0                       # number of times the vector registers were read
system.switch_cpus0.num_vec_register_writes            0                       # number of times the vector registers were written
system.switch_cpus0.op_class::No_OpClass       845638      0.10%      0.10% # Class of executed instruction
system.switch_cpus0.op_class::IntAlu        546961716     63.17%     63.26% # Class of executed instruction
system.switch_cpus0.op_class::IntMult          325460      0.04%     63.30% # Class of executed instruction
system.switch_cpus0.op_class::IntDiv            75099      0.01%     63.31% # Class of executed instruction
system.switch_cpus0.op_class::FloatAdd       24189988      2.79%     66.10% # Class of executed instruction
system.switch_cpus0.op_class::FloatCmp              0      0.00%     66.10% # Class of executed instruction
system.switch_cpus0.op_class::FloatCvt           3856      0.00%     66.10% # Class of executed instruction
system.switch_cpus0.op_class::FloatMult             0      0.00%     66.10% # Class of executed instruction
system.switch_cpus0.op_class::FloatMultAcc            0      0.00%     66.10% # Class of executed instruction
system.switch_cpus0.op_class::FloatDiv              0      0.00%     66.10% # Class of executed instruction
system.switch_cpus0.op_class::FloatMisc             0      0.00%     66.10% # Class of executed instruction
system.switch_cpus0.op_class::FloatSqrt             0      0.00%     66.10% # Class of executed instruction
system.switch_cpus0.op_class::SimdAdd            8998      0.00%     66.10% # Class of executed instruction
system.switch_cpus0.op_class::SimdAddAcc            0      0.00%     66.10% # Class of executed instruction
system.switch_cpus0.op_class::SimdAlu        28583738      3.30%     69.41% # Class of executed instruction
system.switch_cpus0.op_class::SimdCmp               0      0.00%     69.41% # Class of executed instruction
system.switch_cpus0.op_class::SimdCvt            4578      0.00%     69.41% # Class of executed instruction
system.switch_cpus0.op_class::SimdMisc        2997515      0.35%     69.75% # Class of executed instruction
system.switch_cpus0.op_class::SimdMult           7168      0.00%     69.75% # Class of executed instruction
system.switch_cpus0.op_class::SimdMultAcc            0      0.00%     69.75% # Class of executed instruction
system.switch_cpus0.op_class::SimdShift         11914      0.00%     69.75% # Class of executed instruction
system.switch_cpus0.op_class::SimdShiftAcc            0      0.00%     69.75% # Class of executed instruction
system.switch_cpus0.op_class::SimdDiv               0      0.00%     69.75% # Class of executed instruction
system.switch_cpus0.op_class::SimdSqrt              0      0.00%     69.75% # Class of executed instruction
system.switch_cpus0.op_class::SimdFloatAdd     35893051      4.15%     73.90% # Class of executed instruction
system.switch_cpus0.op_class::SimdFloatAlu            0      0.00%     73.90% # Class of executed instruction
system.switch_cpus0.op_class::SimdFloatCmp        85309      0.01%     73.91% # Class of executed instruction
system.switch_cpus0.op_class::SimdFloatCvt     30172742      3.48%     77.39% # Class of executed instruction
system.switch_cpus0.op_class::SimdFloatDiv       433377      0.05%     77.44% # Class of executed instruction
system.switch_cpus0.op_class::SimdFloatMisc            0      0.00%     77.44% # Class of executed instruction
system.switch_cpus0.op_class::SimdFloatMult      9308867      1.08%     78.52% # Class of executed instruction
system.switch_cpus0.op_class::SimdFloatMultAcc            0      0.00%     78.52% # Class of executed instruction
system.switch_cpus0.op_class::SimdFloatSqrt       499338      0.06%     78.58% # Class of executed instruction
system.switch_cpus0.op_class::SimdReduceAdd            0      0.00%     78.58% # Class of executed instruction
system.switch_cpus0.op_class::SimdReduceAlu            0      0.00%     78.58% # Class of executed instruction
system.switch_cpus0.op_class::SimdReduceCmp            0      0.00%     78.58% # Class of executed instruction
system.switch_cpus0.op_class::SimdFloatReduceAdd            0      0.00%     78.58% # Class of executed instruction
system.switch_cpus0.op_class::SimdFloatReduceCmp            0      0.00%     78.58% # Class of executed instruction
system.switch_cpus0.op_class::SimdAes               0      0.00%     78.58% # Class of executed instruction
system.switch_cpus0.op_class::SimdAesMix            0      0.00%     78.58% # Class of executed instruction
[...]
system.mem_ctrls1.llc.tags.avg_refs               nan                       # Average number of references to valid blocks.
system.mem_ctrls1.llc.tags.warmup_cycle  99281343181500                       # Cycle when the warmup percentage was hit.
system.mem_ctrls1.llc.tags.occ_blocks::.ruby.dir_cntrl1 53856.498615                       # Average occupied blocks per requestor
system.mem_ctrls1.llc.tags.occ_percent::.ruby.dir_cntrl1     0.205446                       # Average percentage of cache occupancy
system.mem_ctrls1.llc.tags.occ_percent::total     0.205446                       # Average percentage of cache occupancy
system.mem_ctrls1.llc.tags.occ_task_id_blocks::1024        60852                       # Occupied blocks per task id
system.mem_ctrls1.llc.tags.age_task_id_blocks_1024::0            3                       # Occupied blocks per task id
system.mem_ctrls1.llc.tags.age_task_id_blocks_1024::1            1                       # Occupied blocks per task id
system.mem_ctrls1.llc.tags.age_task_id_blocks_1024::2           13                       # Occupied blocks per task id
system.mem_ctrls1.llc.tags.age_task_id_blocks_1024::4        60835                       # Occupied blocks per task id
system.mem_ctrls1.llc.tags.occ_task_id_percent::1024     0.232132                       # Percentage of cache occupancy per task id
system.mem_ctrls1.llc.tags.tag_accesses      83774996                       # Number of tag accesses
system.mem_ctrls1.llc.tags.data_accesses      5232134                       # Number of data accesses
system.mem_ctrls1.llc.tags.power_state.pwrStateResidencyTicks::UNDEFINED 100448244716001                       # Cumulative time (in ticks) in various power states
system.mem_ctrls1.rank1.actEnergy            68401200                       # Energy for activate commands per rank (pJ)
system.mem_ctrls1.rank1.preEnergy            36356100                       # Energy for precharge commands per rank (pJ)
system.mem_ctrls1.rank1.readEnergy          208680780                       # Energy for read commands per rank (pJ)
system.mem_ctrls1.rank1.writeEnergy                 0                       # Energy for write commands per rank (pJ)
system.mem_ctrls1.rank1.refreshEnergy    92113638240.000015                       # Energy for refresh commands per rank (pJ)
system.mem_ctrls1.rank1.actBackEnergy     32142985140                       # Energy for active background per rank (pJ)
system.mem_ctrls1.rank1.preBackEnergy    421022167680                       # Energy for precharge background per rank (pJ)
system.mem_ctrls1.rank1.actPowerDownEnergy            0                       # Energy for active power-down per rank (pJ)
system.mem_ctrls1.rank1.prePowerDownEnergy            0                       # Energy for precharge power-down per rank (pJ)
system.mem_ctrls1.rank1.selfRefreshEnergy            0                       # Energy for self refresh per rank (pJ)
system.mem_ctrls1.rank1.totalEnergy      545592229140                       # Total energy per rank (pJ)
system.mem_ctrls1.rank1.averagePower       467.556287                       # Core power per rank (mW)
system.mem_ctrls1.rank1.totalIdleTime               0                       # Total Idle time Per DRAM Rank
system.mem_ctrls1.rank1.memoryStateTime::IDLE 1094256475001                       # Time in different power states
system.mem_ctrls1.rank1.memoryStateTime::REF  38965160000                       # Time in different power states
system.mem_ctrls1.rank1.memoryStateTime::SREF            0                       # Time in different power states
system.mem_ctrls1.rank1.memoryStateTime::PRE_PDN            0                       # Time in different power states
system.mem_ctrls1.rank1.memoryStateTime::ACT  33680072500                       # Time in different power states
system.mem_ctrls1.rank1.memoryStateTime::ACT_PDN            0                       # Time in different power states
system.mem_ctrls1.rank0.actEnergy            69986280                       # Energy for activate commands per rank (pJ)
system.mem_ctrls1.rank0.preEnergy            37191000                       # Energy for precharge commands per rank (pJ)
system.mem_ctrls1.rank0.readEnergy          225802500                       # Energy for read commands per rank (pJ)
system.mem_ctrls1.rank0.writeEnergy                 0                       # Energy for write commands per rank (pJ)
system.mem_ctrls1.rank0.refreshEnergy    92113638240.000015                       # Energy for refresh commands per rank (pJ)
system.mem_ctrls1.rank0.actBackEnergy     32837880120                       # Energy for active background per rank (pJ)
system.mem_ctrls1.rank0.preBackEnergy    420437257440                       # Energy for precharge background per rank (pJ)
system.mem_ctrls1.rank0.actPowerDownEnergy            0                       # Energy for active power-down per rank (pJ)
system.mem_ctrls1.rank0.prePowerDownEnergy            0                       # Energy for precharge power-down per rank (pJ)
system.mem_ctrls1.rank0.selfRefreshEnergy            0                       # Energy for self refresh per rank (pJ)
system.mem_ctrls1.rank0.totalEnergy      545721755580                       # Total energy per rank (pJ)
system.mem_ctrls1.rank0.averagePower       467.667287                       # Core power per rank (mW)
system.mem_ctrls1.rank0.totalIdleTime               0                       # Total Idle time Per DRAM Rank
system.mem_ctrls1.rank0.memoryStateTime::IDLE 1092729040750                       # Time in different power states
system.mem_ctrls1.rank0.memoryStateTime::REF  38965160000                       # Time in different power states
system.mem_ctrls1.rank0.memoryStateTime::SREF            0                       # Time in different power states
system.mem_ctrls1.rank0.memoryStateTime::PRE_PDN            0                       # Time in different power states
system.mem_ctrls1.rank0.memoryStateTime::ACT  35207506751                       # Time in different power states
system.mem_ctrls1.rank0.memoryStateTime::ACT_PDN            0                       # Time in different power states
system.mem_ctrls1.power_state.pwrStateResidencyTicks::UNDEFINED 100448244716001                       # Cumulative time (in ticks) in various power states
system.cpu_voltage_domain.voltage                   1                       # Voltage in Volts
system.iobus.trans_dist::ReadReq                 1293                       # Transaction distribution
system.iobus.trans_dist::ReadResp                1293                       # Transaction distribution
system.iobus.trans_dist::WriteReq                7663                       # Transaction distribution
system.iobus.trans_dist::WriteResp               7663                       # Transaction distribution
system.iobus.pkt_count_system.pc.south_bridge.io_apic.int_master::system.ruby.l1_cntrl1.sequencer.pio-slave-port          462                       # Packet count per connected master and slave (bytes)
system.iobus.pkt_count_system.pc.south_bridge.io_apic.int_master::total          462                       # Packet count per connected master and slave (bytes)
system.iobus.pkt_count_system.ruby.l1_cntrl0.sequencer.mem-master-port::system.pc.com_1.pio           32                       # Packet count per connected master and slave (bytes)
system.iobus.pkt_count_system.ruby.l1_cntrl0.sequencer.mem-master-port::system.ruby.l1_cntrl0.sequencer.pio-slave-port         3228                       # Packet count per connected master and slave (bytes)
system.iobus.pkt_count_system.ruby.l1_cntrl0.sequencer.mem-master-port::system.ruby.l1_cntrl1.sequencer.pio-slave-port           50                       # Packet count per connected master and slave (bytes)
system.iobus.pkt_count_system.ruby.l1_cntrl0.sequencer.mem-master-port::system.ruby.l1_cntrl2.sequencer.pio-slave-port           84                       # Packet count per connected master and slave (bytes)
system.iobus.pkt_count_system.ruby.l1_cntrl0.sequencer.mem-master-port::system.ruby.l1_cntrl3.sequencer.pio-slave-port          136                       # Packet count per connected master and slave (bytes)
system.iobus.pkt_count_system.ruby.l1_cntrl0.sequencer.mem-master-port::total         3530                       # Packet count per connected master and slave (bytes)
system.iobus.pkt_count_system.ruby.l1_cntrl1.sequencer.mem-master-port::system.pc.south_bridge.ide.pio         2646                       # Packet count per connected master and slave (bytes)
system.iobus.pkt_count_system.ruby.l1_cntrl1.sequencer.mem-master-port::system.pc.com_1.pio         1350                       # Packet count per connected master and slave (bytes)
system.iobus.pkt_count_system.ruby.l1_cntrl1.sequencer.mem-master-port::system.ruby.l1_cntrl0.sequencer.pio-slave-port          132                       # Packet count per connected master and slave (bytes)
system.iobus.pkt_count_system.ruby.l1_cntrl1.sequencer.mem-master-port::system.ruby.l1_cntrl1.sequencer.pio-slave-port         3024                       # Packet count per connected master and slave (bytes)
system.iobus.pkt_count_system.ruby.l1_cntrl1.sequencer.mem-master-port::system.ruby.l1_cntrl2.sequencer.pio-slave-port           76                       # Packet count per connected master and slave (bytes)
system.iobus.pkt_count_system.ruby.l1_cntrl1.sequencer.mem-master-port::system.ruby.l1_cntrl3.sequencer.pio-slave-port           92                       # Packet count per connected master and slave (bytes)
system.iobus.pkt_count_system.ruby.l1_cntrl1.sequencer.mem-master-port::total         7320                       # Packet count per connected master and slave (bytes)
system.iobus.pkt_count_system.ruby.l1_cntrl2.sequencer.mem-master-port::system.ruby.l1_cntrl0.sequencer.pio-slave-port          112                       # Packet count per connected master and slave (bytes)
system.iobus.pkt_count_system.ruby.l1_cntrl2.sequencer.mem-master-port::system.ruby.l1_cntrl1.sequencer.pio-slave-port            6                       # Packet count per connected master and slave (bytes)
system.iobus.pkt_count_system.ruby.l1_cntrl2.sequencer.mem-master-port::system.ruby.l1_cntrl2.sequencer.pio-slave-port         3010                       # Packet count per connected master and slave (bytes)
system.iobus.pkt_count_system.ruby.l1_cntrl2.sequencer.mem-master-port::system.ruby.l1_cntrl3.sequencer.pio-slave-port           28                       # Packet count per connected master and slave (bytes)
system.iobus.pkt_count_system.ruby.l1_cntrl2.sequencer.mem-master-port::total         3156                       # Packet count per connected master and slave (bytes)
system.iobus.pkt_count_system.ruby.l1_cntrl3.sequencer.mem-master-port::system.pc.south_bridge.ide.pio           68                       # Packet count per connected master and slave (bytes)
system.iobus.pkt_count_system.ruby.l1_cntrl3.sequencer.mem-master-port::system.ruby.l1_cntrl0.sequencer.pio-slave-port          168                       # Packet count per connected master and slave (bytes)
system.iobus.pkt_count_system.ruby.l1_cntrl3.sequencer.mem-master-port::system.ruby.l1_cntrl1.sequencer.pio-slave-port           72                       # Packet count per connected master and slave (bytes)
system.iobus.pkt_count_system.ruby.l1_cntrl3.sequencer.mem-master-port::system.ruby.l1_cntrl2.sequencer.pio-slave-port           84                       # Packet count per connected master and slave (bytes)
system.iobus.pkt_count_system.ruby.l1_cntrl3.sequencer.mem-master-port::system.ruby.l1_cntrl3.sequencer.pio-slave-port         3052                       # Packet count per connected master and slave (bytes)
system.iobus.pkt_count_system.ruby.l1_cntrl3.sequencer.mem-master-port::total         3444                       # Packet count per connected master and slave (bytes)
system.iobus.pkt_count::total                   17912                       # Packet count per connected master and slave (bytes)
system.iobus.pkt_size_system.pc.south_bridge.io_apic.int_master::system.ruby.l1_cntrl1.sequencer.pio-slave-port          924                       # Cumulative packet size per connected master and slave (bytes)
system.iobus.pkt_size_system.pc.south_bridge.io_apic.int_master::total          924                       # Cumulative packet size per connected master and slave (bytes)
system.iobus.pkt_size_system.ruby.l1_cntrl0.sequencer.mem-master-port::system.pc.com_1.pio           16                       # Cumulative packet size per connected master and slave (bytes)
system.iobus.pkt_size_system.ruby.l1_cntrl0.sequencer.mem-master-port::system.ruby.l1_cntrl0.sequencer.pio-slave-port         6456                       # Cumulative packet size per connected master and slave (bytes)
system.iobus.pkt_size_system.ruby.l1_cntrl0.sequencer.mem-master-port::system.ruby.l1_cntrl1.sequencer.pio-slave-port          100                       # Cumulative packet size per connected master and slave (bytes)
system.iobus.pkt_size_system.ruby.l1_cntrl0.sequencer.mem-master-port::system.ruby.l1_cntrl2.sequencer.pio-slave-port          168                       # Cumulative packet size per connected master and slave (bytes)
system.iobus.pkt_size_system.ruby.l1_cntrl0.sequencer.mem-master-port::system.ruby.l1_cntrl3.sequencer.pio-slave-port          272                       # Cumulative packet size per connected master and slave (bytes)
system.iobus.pkt_size_system.ruby.l1_cntrl0.sequencer.mem-master-port::total         7012                       # Cumulative packet size per connected master and slave (bytes)
system.iobus.pkt_size_system.ruby.l1_cntrl1.sequencer.mem-master-port::system.pc.south_bridge.ide.pio         1494                       # Cumulative packet size per connected master and slave (bytes)
system.iobus.pkt_size_system.ruby.l1_cntrl1.sequencer.mem-master-port::system.pc.com_1.pio          675                       # Cumulative packet size per connected master and slave (bytes)
system.iobus.pkt_size_system.ruby.l1_cntrl1.sequencer.mem-master-port::system.ruby.l1_cntrl0.sequencer.pio-slave-port          264                       # Cumulative packet size per connected master and slave (bytes)
system.iobus.pkt_size_system.ruby.l1_cntrl1.sequencer.mem-master-port::system.ruby.l1_cntrl1.sequencer.pio-slave-port         6048                       # Cumulative packet size per connected master and slave (bytes)
system.iobus.pkt_size_system.ruby.l1_cntrl1.sequencer.mem-master-port::system.ruby.l1_cntrl2.sequencer.pio-slave-port          152                       # Cumulative packet size per connected master and slave (bytes)
system.iobus.pkt_size_system.ruby.l1_cntrl1.sequencer.mem-master-port::system.ruby.l1_cntrl3.sequencer.pio-slave-port          184                       # Cumulative packet size per connected master and slave (bytes)
system.iobus.pkt_size_system.ruby.l1_cntrl1.sequencer.mem-master-port::total         8817                       # Cumulative packet size per connected master and slave (bytes)
system.iobus.pkt_size_system.ruby.l1_cntrl2.sequencer.mem-master-port::system.ruby.l1_cntrl0.sequencer.pio-slave-port          224                       # Cumulative packet size per connected master and slave (bytes)
system.iobus.pkt_size_system.ruby.l1_cntrl2.sequencer.mem-master-port::system.ruby.l1_cntrl1.sequencer.pio-slave-port           12                       # Cumulative packet size per connected master and slave (bytes)
system.iobus.pkt_size_system.ruby.l1_cntrl2.sequencer.mem-master-port::system.ruby.l1_cntrl2.sequencer.pio-slave-port         6020                       # Cumulative packet size per connected master and slave (bytes)
system.iobus.pkt_size_system.ruby.l1_cntrl2.sequencer.mem-master-port::system.ruby.l1_cntrl3.sequencer.pio-slave-port           56                       # Cumulative packet size per connected master and slave (bytes)
system.iobus.pkt_size_system.ruby.l1_cntrl2.sequencer.mem-master-port::total         6312                       # Cumulative packet size per connected master and slave (bytes)
system.iobus.pkt_size_system.ruby.l1_cntrl3.sequencer.mem-master-port::system.pc.south_bridge.ide.pio           40                       # Cumulative packet size per connected master and slave (bytes)
system.iobus.pkt_size_system.ruby.l1_cntrl3.sequencer.mem-master-port::system.ruby.l1_cntrl0.sequencer.pio-slave-port          336                       # Cumulative packet size per connected master and slave (bytes)
system.iobus.pkt_size_system.ruby.l1_cntrl3.sequencer.mem-master-port::system.ruby.l1_cntrl1.sequencer.pio-slave-port          144                       # Cumulative packet size per connected master and slave (bytes)
system.iobus.pkt_size_system.ruby.l1_cntrl3.sequencer.mem-master-port::system.ruby.l1_cntrl2.sequencer.pio-slave-port          168                       # Cumulative packet size per connected master and slave (bytes)
system.iobus.pkt_size_system.ruby.l1_cntrl3.sequencer.mem-master-port::system.ruby.l1_cntrl3.sequencer.pio-slave-port         6104                       # Cumulative packet size per connected master and slave (bytes)
system.iobus.pkt_size_system.ruby.l1_cntrl3.sequencer.mem-master-port::total         6792                       # Cumulative packet size per connected master and slave (bytes)
system.iobus.pkt_size::total                    29857                       # Cumulative packet size per connected master and slave (bytes)
system.iobus.reqLayer2.occupancy              2261500                       # Layer occupancy (ticks)
system.iobus.reqLayer2.utilization                0.0                       # Layer utilization (%)
system.iobus.power_state.pwrStateResidencyTicks::UNDEFINED 100448244716001                       # Cumulative time (in ticks) in various power states
system.iobus.reqLayer19.occupancy             3875663                       # Layer occupancy (ticks)
system.iobus.reqLayer19.utilization               0.0                       # Layer utilization (%)
system.iobus.reqLayer17.occupancy             4375112                       # Layer occupancy (ticks)
system.iobus.reqLayer17.utilization               0.0                       # Layer utilization (%)
system.iobus.reqLayer12.occupancy              898500                       # Layer occupancy (ticks)
system.iobus.reqLayer12.utilization               0.0                       # Layer utilization (%)
system.iobus.reqLayer18.occupancy             4173351                       # Layer occupancy (ticks)
system.iobus.reqLayer18.utilization               0.0                       # Layer utilization (%)
system.iobus.respLayer9.occupancy             2564000                       # Layer occupancy (ticks)
system.iobus.respLayer9.utilization               0.0                       # Layer utilization (%)
system.iobus.respLayer5.occupancy             5438000                       # Layer occupancy (ticks)
system.iobus.respLayer5.utilization               0.0                       # Layer utilization (%)
system.iobus.respLayer7.occupancy             2403000                       # Layer occupancy (ticks)
system.iobus.respLayer7.utilization               0.0                       # Layer utilization (%)
system.iobus.respLayer0.occupancy              358941                       # Layer occupancy (ticks)
system.iobus.respLayer0.utilization               0.0                       # Layer utilization (%)
system.iobus.respLayer3.occupancy             2648000                       # Layer occupancy (ticks)
system.iobus.respLayer3.utilization               0.0                       # Layer utilization (%)
system.iobus.reqLayer20.occupancy             3908182                       # Layer occupancy (ticks)
system.iobus.reqLayer20.utilization               0.0                       # Layer utilization (%)

---------- End Simulation Statistics   ----------
