
---------- Begin Simulation Statistics ----------
final_tick                                   48331500                       # Number of ticks from beginning of simulation (restored from checkpoints and never reset)
host_inst_rate                                   2437                       # Simulator instruction rate (inst/s)
host_mem_usage                                 987524                       # Number of bytes of host memory used
host_op_rate                                     4770                       # Simulator op (including micro ops) rate (op/s)
host_seconds                                     1.89                       # Real time elapsed on the host
host_tick_rate                               25547168                       # Simulator tick rate (ticks/s)
sim_freq                                 1000000000000                       # Frequency of simulated ticks
sim_insts                                        4611                       # Number of instructions simulated
sim_ops                                          9025                       # Number of ops (including micro ops) simulated
sim_seconds                                  0.000048                       # Number of seconds simulated
sim_ticks                                    48331500                       # Number of ticks simulated
system.cpu00.Branches                            1034                       # Number of branches fetched
system.cpu00.committedInsts                      4611                       # Number of instructions committed
system.cpu00.committedOps                        9025                       # Number of ops (including micro ops) committed
system.cpu00.dtb.rdAccesses                       955                       # TLB accesses on read requests
system.cpu00.dtb.rdMisses                          23                       # TLB misses on read requests
system.cpu00.dtb.wrAccesses                       647                       # TLB accesses on write requests
system.cpu00.dtb.wrMisses                           2                       # TLB misses on write requests
system.cpu00.idle_fraction                          0                       # Percentage of idle cycles
system.cpu00.itb.rdAccesses                         0                       # TLB accesses on read requests
system.cpu00.itb.rdMisses                           0                       # TLB misses on read requests
system.cpu00.itb.wrAccesses                      6131                       # TLB accesses on write requests
system.cpu00.itb.wrMisses                          23                       # TLB misses on write requests
system.cpu00.not_idle_fraction                      1                       # Percentage of non-idle cycles
system.cpu00.numCycles                          96663                       # number of cpu cycles simulated
system.cpu00.numWorkItemsCompleted                  0                       # number of work items this cpu completed
system.cpu00.numWorkItemsStarted                    0                       # number of work items this cpu started
system.cpu00.num_busy_cycles                    96663                       # Number of busy cycles
system.cpu00.num_cc_register_reads               5680                       # number of times the CC registers were read
system.cpu00.num_cc_register_writes              3168                       # number of times the CC registers were written
system.cpu00.num_conditional_control_insts          803                       # number of instructions that are conditional controls
system.cpu00.num_fp_alu_accesses                  308                       # Number of float alu accesses
system.cpu00.num_fp_insts                         308                       # number of float instructions
system.cpu00.num_fp_register_reads                530                       # number of times the floating registers were read
system.cpu00.num_fp_register_writes               270                       # number of times the floating registers were written
system.cpu00.num_func_calls                       147                       # number of times a function call or return occured
system.cpu00.num_idle_cycles                        0                       # Number of idle cycles
system.cpu00.num_int_alu_accesses                8762                       # Number of integer alu accesses
system.cpu00.num_int_insts                       8762                       # number of integer instructions
system.cpu00.num_int_register_reads             16545                       # number of times the integer registers were read
system.cpu00.num_int_register_writes             7042                       # number of times the integer registers were written
system.cpu00.num_load_insts                       955                       # Number of load instructions
system.cpu00.num_mem_refs                        1602                       # number of memory refs
system.cpu00.num_store_insts                      647                       # Number of store instructions
system.cpu00.num_vec_alu_accesses                   0                       # Number of vector alu accesses
system.cpu00.num_vec_insts                          0                       # number of vector instructions
system.cpu00.num_vec_register_reads                 0                       # number of times the vector registers were read
system.cpu00.num_vec_register_writes                0                       # number of times the vector registers were written
system.cpu00.op_class::No_OpClass                  48      0.53%      0.53% # Class of executed instruction
system.cpu00.op_class::IntAlu                    7136     79.00%     79.53% # Class of executed instruction
system.cpu00.op_class::IntMult                      5      0.06%     79.59% # Class of executed instruction
system.cpu00.op_class::IntDiv                       0      0.00%     79.59% # Class of executed instruction
system.cpu00.op_class::FloatAdd                     6      0.07%     79.65% # Class of executed instruction
system.cpu00.op_class::FloatCmp                     0      0.00%     79.65% # Class of executed instruction
system.cpu00.op_class::FloatCvt                     0      0.00%     79.65% # Class of executed instruction
system.cpu00.op_class::FloatMult                    0      0.00%     79.65% # Class of executed instruction
system.cpu00.op_class::FloatMultAcc                 0      0.00%     79.65% # Class of executed instruction
system.cpu00.op_class::FloatDiv                     0      0.00%     79.65% # Class of executed instruction
system.cpu00.op_class::FloatMisc                    0      0.00%     79.65% # Class of executed instruction
system.cpu00.op_class::FloatSqrt                    0      0.00%     79.65% # Class of executed instruction
system.cpu00.op_class::SimdAdd                     22      0.24%     79.90% # Class of executed instruction
system.cpu00.op_class::SimdAddAcc                   0      0.00%     79.90% # Class of executed instruction
system.cpu00.op_class::SimdAlu                     65      0.72%     80.62% # Class of executed instruction
system.cpu00.op_class::SimdCmp                      0      0.00%     80.62% # Class of executed instruction
system.cpu00.op_class::SimdCvt                     60      0.66%     81.28% # Class of executed instruction
system.cpu00.op_class::SimdMisc                    80      0.89%     82.17% # Class of executed instruction
system.cpu00.op_class::SimdMult                     0      0.00%     82.17% # Class of executed instruction
system.cpu00.op_class::SimdMultAcc                  0      0.00%     82.17% # Class of executed instruction
system.cpu00.op_class::SimdShift                    9      0.10%     82.27% # Class of executed instruction
system.cpu00.op_class::SimdShiftAcc                 0      0.00%     82.27% # Class of executed instruction
system.cpu00.op_class::SimdDiv                      0      0.00%     82.27% # Class of executed instruction
system.cpu00.op_class::SimdSqrt                     0      0.00%     82.27% # Class of executed instruction
system.cpu00.op_class::SimdFloatAdd                 0      0.00%     82.27% # Class of executed instruction
system.cpu00.op_class::SimdFloatAlu                 0      0.00%     82.27% # Class of executed instruction
system.cpu00.op_class::SimdFloatCmp                 0      0.00%     82.27% # Class of executed instruction
system.cpu00.op_class::SimdFloatCvt                 0      0.00%     82.27% # Class of executed instruction
system.cpu00.op_class::SimdFloatDiv                 0      0.00%     82.27% # Class of executed instruction
system.cpu00.op_class::SimdFloatMisc                0      0.00%     82.27% # Class of executed instruction
system.cpu00.op_class::SimdFloatMult                0      0.00%     82.27% # Class of executed instruction
system.cpu00.op_class::SimdFloatMultAcc             0      0.00%     82.27% # Class of executed instruction
system.cpu00.op_class::SimdFloatSqrt                0      0.00%     82.27% # Class of executed instruction
system.cpu00.op_class::SimdReduceAdd                0      0.00%     82.27% # Class of executed instruction
system.cpu00.op_class::SimdReduceAlu                0      0.00%     82.27% # Class of executed instruction
system.cpu00.op_class::SimdReduceCmp                0      0.00%     82.27% # Class of executed instruction
system.cpu00.op_class::SimdFloatReduceAdd            0      0.00%     82.27% # Class of executed instruction
system.cpu00.op_class::SimdFloatReduceCmp            0      0.00%     82.27% # Class of executed instruction
system.cpu00.op_class::SimdAes                      0      0.00%     82.27% # Class of executed instruction
system.cpu00.op_class::SimdAesMix                   0      0.00%     82.27% # Class of executed instruction
system.cpu00.op_class::SimdSha1Hash                 0      0.00%     82.27% # Class of executed instruction
system.cpu00.op_class::SimdSha1Hash2                0      0.00%     82.27% # Class of executed instruction
system.cpu00.op_class::SimdSha256Hash               0      0.00%     82.27% # Class of executed instruction
system.cpu00.op_class::SimdSha256Hash2              0      0.00%     82.27% # Class of executed instruction
system.cpu00.op_class::SimdShaSigma2                0      0.00%     82.27% # Class of executed instruction
system.cpu00.op_class::SimdShaSigma3                0      0.00%     82.27% # Class of executed instruction
system.cpu00.op_class::SimdPredAlu                  0      0.00%     82.27% # Class of executed instruction
system.cpu00.op_class::MemRead                    899      9.95%     92.22% # Class of executed instruction
system.cpu00.op_class::MemWrite                   647      7.16%     99.38% # Class of executed instruction
system.cpu00.op_class::FloatMemRead                56      0.62%    100.00% # Class of executed instruction
system.cpu00.op_class::FloatMemWrite                0      0.00%    100.00% # Class of executed instruction
system.cpu00.op_class::IprAccess                    0      0.00%    100.00% # Class of executed instruction
system.cpu00.op_class::InstPrefetch                 0      0.00%    100.00% # Class of executed instruction
system.cpu00.op_class::total                     9033                       # Class of executed instruction
system.cpu00.workload.numSyscalls                  10                       # Number of system calls
system.cpu01.committedInsts                         0                       # Number of instructions committed
system.cpu01.committedOps                           0                       # Number of ops (including micro ops) committed
system.cpu01.dtb.rdAccesses                         0                       # TLB accesses on read requests
system.cpu01.dtb.rdMisses                           0                       # TLB misses on read requests
system.cpu01.dtb.wrAccesses                         0                       # TLB accesses on write requests
system.cpu01.dtb.wrMisses                           0                       # TLB misses on write requests
system.cpu01.idle_fraction                          1                       # Percentage of idle cycles
system.cpu01.itb.rdAccesses                         0                       # TLB accesses on read requests
system.cpu01.itb.rdMisses                           0                       # TLB misses on read requests
system.cpu01.itb.wrAccesses                         0                       # TLB accesses on write requests
system.cpu01.itb.wrMisses                           0                       # TLB misses on write requests
system.cpu01.not_idle_fraction                      0                       # Percentage of non-idle cycles
system.cpu01.numCycles                              0                       # number of cpu cycles simulated
system.cpu01.numWorkItemsCompleted                  0                       # number of work items this cpu completed
system.cpu01.numWorkItemsStarted                    0                       # number of work items this cpu started
system.cpu01.num_busy_cycles                        0                       # Number of busy cycles
system.cpu01.num_conditional_control_insts            0                       # number of instructions that are conditional controls
system.cpu01.num_fp_alu_accesses                    0                       # Number of float alu accesses
system.cpu01.num_fp_insts                           0                       # number of float instructions
system.cpu01.num_fp_register_reads                  0                       # number of times the floating registers were read
system.cpu01.num_fp_register_writes                 0                       # number of times the floating registers were written
system.cpu01.num_func_calls                         0                       # number of times a function call or return occured
system.cpu01.num_idle_cycles                        0                       # Number of idle cycles
system.cpu01.num_int_alu_accesses                   0                       # Number of integer alu accesses
system.cpu01.num_int_insts                          0                       # number of integer instructions
system.cpu01.num_int_register_reads                 0                       # number of times the integer registers were read
system.cpu01.num_int_register_writes                0                       # number of times the integer registers were written
system.cpu01.num_load_insts                         0                       # Number of load instructions
system.cpu01.num_mem_refs                           0                       # number of memory refs
system.cpu01.num_store_insts                        0                       # Number of store instructions
system.cpu01.num_vec_alu_accesses                   0                       # Number of vector alu accesses
system.cpu01.num_vec_insts                          0                       # number of vector instructions
system.cpu01.num_vec_register_reads                 0                       # number of times the vector registers were read
system.cpu01.num_vec_register_writes                0                       # number of times the vector registers were written
system.cpu01.op_class::No_OpClass                   0                       # Class of executed instruction
system.cpu01.op_class::IntAlu                       0                       # Class of executed instruction
system.cpu01.op_class::IntMult                      0                       # Class of executed instruction
system.cpu01.op_class::IntDiv                       0                       # Class of executed instruction
system.cpu01.op_class::FloatAdd                     0                       # Class of executed instruction
system.cpu01.op_class::FloatCmp                     0                       # Class of executed instruction
system.cpu01.op_class::FloatCvt                     0                       # Class of executed instruction
system.cpu01.op_class::FloatMult                    0                       # Class of executed instruction
system.cpu01.op_class::FloatMultAcc                 0                       # Class of executed instruction
system.cpu01.op_class::FloatDiv                     0                       # Class of executed instruction
system.cpu01.op_class::FloatMisc                    0                       # Class of executed instruction
system.cpu01.op_class::FloatSqrt                    0                       # Class of executed instruction
system.cpu01.op_class::SimdAdd                      0                       # Class of executed instruction
system.cpu01.op_class::SimdAddAcc                   0                       # Class of executed instruction
system.cpu01.op_class::SimdAlu                      0                       # Class of executed instruction
system.cpu01.op_class::SimdCmp                      0                       # Class of executed instruction
system.cpu01.op_class::SimdCvt                      0                       # Class of executed instruction
system.cpu01.op_class::SimdMisc                     0                       # Class of executed instruction
system.cpu01.op_class::SimdMult                     0                       # Class of executed instruction
system.cpu01.op_class::SimdMultAcc                  0                       # Class of executed instruction
system.cpu01.op_class::SimdShift                    0                       # Class of executed instruction
system.cpu01.op_class::SimdShiftAcc                 0                       # Class of executed instruction
system.cpu01.op_class::SimdDiv                      0                       # Class of executed instruction
system.cpu01.op_class::SimdSqrt                     0                       # Class of executed instruction
system.cpu01.op_class::SimdFloatAdd                 0                       # Class of executed instruction
system.cpu01.op_class::SimdFloatAlu                 0                       # Class of executed instruction
system.cpu01.op_class::SimdFloatCmp                 0                       # Class of executed instruction
system.cpu01.op_class::SimdFloatCvt                 0                       # Class of executed instruction
system.cpu01.op_class::SimdFloatDiv                 0                       # Class of executed instruction
system.cpu01.op_class::SimdFloatMisc                0                       # Class of executed instruction
system.cpu01.op_class::SimdFloatMult                0                       # Class of executed instruction
system.cpu01.op_class::SimdFloatMultAcc             0                       # Class of executed instruction
system.cpu01.op_class::SimdFloatSqrt                0                       # Class of executed instruction
system.cpu01.op_class::SimdReduceAdd                0                       # Class of executed instruction
system.cpu01.op_class::SimdReduceAlu                0                       # Class of executed instruction
system.cpu01.op_class::SimdReduceCmp                0                       # Class of executed instruction
system.cpu01.op_class::SimdFloatReduceAdd            0                       # Class of executed instruction
system.cpu01.op_class::SimdFloatReduceCmp            0                       # Class of executed instruction
system.cpu01.op_class::SimdAes                      0                       # Class of executed instruction
system.cpu01.op_class::SimdAesMix                   0                       # Class of executed instruction
system.cpu01.op_class::SimdSha1Hash                 0                       # Class of executed instruction
system.cpu01.op_class::SimdSha1Hash2                0                       # Class of executed instruction
system.cpu01.op_class::SimdSha256Hash               0                       # Class of executed instruction
system.cpu01.op_class::SimdSha256Hash2              0                       # Class of executed instruction
system.cpu01.op_class::SimdShaSigma2                0                       # Class of executed instruction
system.cpu01.op_class::SimdShaSigma3                0                       # Class of executed instruction
system.cpu01.op_class::SimdPredAlu                  0                       # Class of executed instruction
system.cpu01.op_class::MemRead                      0                       # Class of executed instruction
system.cpu01.op_class::MemWrite                     0                       # Class of executed instruction
system.cpu01.op_class::FloatMemRead                 0                       # Class of executed instruction
system.cpu01.op_class::FloatMemWrite                0                       # Class of executed instruction
system.cpu01.op_class::IprAccess                    0                       # Class of executed instruction
system.cpu01.op_class::InstPrefetch                 0                       # Class of executed instruction
system.cpu01.op_class::total                        0                       # Class of executed instruction
system.cpu02.committedInsts                         0                       # Number of instructions committed
system.cpu02.committedOps                           0                       # Number of ops (including micro ops) committed
system.cpu02.dtb.rdAccesses                         0                       # TLB accesses on read requests
system.cpu02.dtb.rdMisses                           0                       # TLB misses on read requests
system.cpu02.dtb.wrAccesses                         0                       # TLB accesses on write requests
system.cpu02.dtb.wrMisses                           0                       # TLB misses on write requests
system.cpu02.idle_fraction                          1                       # Percentage of idle cycles
system.cpu02.itb.rdAccesses                         0                       # TLB accesses on read requests
system.cpu02.itb.rdMisses                           0                       # TLB misses on read requests
system.cpu02.itb.wrAccesses                         0                       # TLB accesses on write requests
system.cpu02.itb.wrMisses                           0                       # TLB misses on write requests
system.cpu02.not_idle_fraction                      0                       # Percentage of non-idle cycles
system.cpu02.numCycles                              0                       # number of cpu cycles simulated
system.cpu02.numWorkItemsCompleted                  0                       # number of work items this cpu completed
system.cpu02.numWorkItemsStarted                    0                       # number of work items this cpu started
system.cpu02.num_busy_cycles                        0                       # Number of busy cycles
system.cpu02.num_conditional_control_insts            0                       # number of instructions that are conditional controls
system.cpu02.num_fp_alu_accesses                    0                       # Number of float alu accesses
system.cpu02.num_fp_insts                           0                       # number of float instructions
system.cpu02.num_fp_register_reads                  0                       # number of times the floating registers were read
system.cpu02.num_fp_register_writes                 0                       # number of times the floating registers were written
system.cpu02.num_func_calls                         0                       # number of times a function call or return occured
system.cpu02.num_idle_cycles                        0                       # Number of idle cycles
system.cpu02.num_int_alu_accesses                   0                       # Number of integer alu accesses
system.cpu02.num_int_insts                          0                       # number of integer instructions
system.cpu02.num_int_register_reads                 0                       # number of times the integer registers were read
system.cpu02.num_int_register_writes                0                       # number of times the integer registers were written
system.cpu02.num_load_insts                         0                       # Number of load instructions
system.cpu02.num_mem_refs                           0                       # number of memory refs
system.cpu02.num_store_insts                        0                       # Number of store instructions
system.cpu02.num_vec_alu_accesses                   0                       # Number of vector alu accesses
system.cpu02.num_vec_insts                          0                       # number of vector instructions
system.cpu02.num_vec_register_reads                 0                       # number of times the vector registers were read
system.cpu02.num_vec_register_writes                0                       # number of times the vector registers were written
system.cpu02.op_class::No_OpClass                   0                       # Class of executed instruction
system.cpu02.op_class::IntAlu                       0                       # Class of executed instruction
system.cpu02.op_class::IntMult                      0                       # Class of executed instruction
system.cpu02.op_class::IntDiv                       0                       # Class of executed instruction
system.cpu02.op_class::FloatAdd                     0                       # Class of executed instruction
system.cpu02.op_class::FloatCmp                     0                       # Class of executed instruction
system.cpu02.op_class::FloatCvt                     0                       # Class of executed instruction
system.cpu02.op_class::FloatMult                    0                       # Class of executed instruction
system.cpu02.op_class::FloatMultAcc                 0                       # Class of executed instruction
system.cpu02.op_class::FloatDiv                     0                       # Class of executed instruction
system.cpu02.op_class::FloatMisc                    0                       # Class of executed instruction
system.cpu02.op_class::FloatSqrt                    0                       # Class of executed instruction
system.cpu02.op_class::SimdAdd                      0                       # Class of executed instruction
system.cpu02.op_class::SimdAddAcc                   0                       # Class of executed instruction
system.cpu02.op_class::SimdAlu                      0                       # Class of executed instruction
system.cpu02.op_class::SimdCmp                      0                       # Class of executed instruction
system.cpu02.op_class::SimdCvt                      0                       # Class of executed instruction
system.cpu02.op_class::SimdMisc                     0                       # Class of executed instruction
system.cpu02.op_class::SimdMult                     0                       # Class of executed instruction
system.cpu02.op_class::SimdMultAcc                  0                       # Class of executed instruction
system.cpu02.op_class::SimdShift                    0                       # Class of executed instruction
system.cpu02.op_class::SimdShiftAcc                 0                       # Class of executed instruction
system.cpu02.op_class::SimdDiv                      0                       # Class of executed instruction
system.cpu02.op_class::SimdSqrt                     0                       # Class of executed instruction
system.cpu02.op_class::SimdFloatAdd                 0                       # Class of executed instruction
system.cpu02.op_class::SimdFloatAlu                 0                       # Class of executed instruction
system.cpu02.op_class::SimdFloatCmp                 0                       # Class of executed instruction
system.cpu02.op_class::SimdFloatCvt                 0                       # Class of executed instruction
system.cpu02.op_class::SimdFloatDiv                 0                       # Class of executed instruction
system.cpu02.op_class::SimdFloatMisc                0                       # Class of executed instruction
system.cpu02.op_class::SimdFloatMult                0                       # Class of executed instruction
system.cpu02.op_class::SimdFloatMultAcc             0                       # Class of executed instruction
system.cpu02.op_class::SimdFloatSqrt                0                       # Class of executed instruction
system.cpu02.op_class::SimdReduceAdd                0                       # Class of executed instruction
system.cpu02.op_class::SimdReduceAlu                0                       # Class of executed instruction
system.cpu02.op_class::SimdReduceCmp                0                       # Class of executed instruction
system.cpu02.op_class::SimdFloatReduceAdd            0                       # Class of executed instruction
system.cpu02.op_class::SimdFloatReduceCmp            0                       # Class of executed instruction
system.cpu02.op_class::SimdAes                      0                       # Class of executed instruction
system.cpu02.op_class::SimdAesMix                   0                       # Class of executed instruction
system.cpu02.op_class::SimdSha1Hash                 0                       # Class of executed instruction
system.cpu02.op_class::SimdSha1Hash2                0                       # Class of executed instruction
system.cpu02.op_class::SimdSha256Hash               0                       # Class of executed instruction
system.cpu02.op_class::SimdSha256Hash2              0                       # Class of executed instruction
system.cpu02.op_class::SimdShaSigma2                0                       # Class of executed instruction
system.cpu02.op_class::SimdShaSigma3                0                       # Class of executed instruction
system.cpu02.op_class::SimdPredAlu                  0                       # Class of executed instruction
system.cpu02.op_class::MemRead                      0                       # Class of executed instruction
system.cpu02.op_class::MemWrite                     0                       # Class of executed instruction
system.cpu02.op_class::FloatMemRead                 0                       # Class of executed instruction
system.cpu02.op_class::FloatMemWrite                0                       # Class of executed instruction
system.cpu02.op_class::IprAccess                    0                       # Class of executed instruction
system.cpu02.op_class::InstPrefetch                 0                       # Class of executed instruction
system.cpu02.op_class::total                        0                       # Class of executed instruction
system.cpu03.committedInsts                         0                       # Number of instructions committed
system.cpu03.committedOps                           0                       # Number of ops (including micro ops) committed
system.cpu03.dtb.rdAccesses                         0                       # TLB accesses on read requests
system.cpu03.dtb.rdMisses                           0                       # TLB misses on read requests
system.cpu03.dtb.wrAccesses                         0                       # TLB accesses on write requests
system.cpu03.dtb.wrMisses                           0                       # TLB misses on write requests
system.cpu03.idle_fraction                          1                       # Percentage of idle cycles
system.cpu03.itb.rdAccesses                         0                       # TLB accesses on read requests
system.cpu03.itb.rdMisses                           0                       # TLB misses on read requests
system.cpu03.itb.wrAccesses                         0                       # TLB accesses on write requests
system.cpu03.itb.wrMisses                           0                       # TLB misses on write requests
system.cpu03.not_idle_fraction                      0                       # Percentage of non-idle cycles
system.cpu03.numCycles                              0                       # number of cpu cycles simulated
system.cpu03.numWorkItemsCompleted                  0                       # number of work items this cpu completed
system.cpu03.numWorkItemsStarted                    0                       # number of work items this cpu started
system.cpu03.num_busy_cycles                        0                       # Number of busy cycles
system.cpu03.num_conditional_control_insts            0                       # number of instructions that are conditional controls
system.cpu03.num_fp_alu_accesses                    0                       # Number of float alu accesses
system.cpu03.num_fp_insts                           0                       # number of float instructions
system.cpu03.num_fp_register_reads                  0                       # number of times the floating registers were read
system.cpu03.num_fp_register_writes                 0                       # number of times the floating registers were written
system.cpu03.num_func_calls                         0                       # number of times a function call or return occured
system.cpu03.num_idle_cycles                        0                       # Number of idle cycles
system.cpu03.num_int_alu_accesses                   0                       # Number of integer alu accesses
system.cpu03.num_int_insts                          0                       # number of integer instructions
system.cpu03.num_int_register_reads                 0                       # number of times the integer registers were read
system.cpu03.num_int_register_writes                0                       # number of times the integer registers were written
system.cpu03.num_load_insts                         0                       # Number of load instructions
system.cpu03.num_mem_refs                           0                       # number of memory refs
system.cpu03.num_store_insts                        0                       # Number of store instructions
system.cpu03.num_vec_alu_accesses                   0                       # Number of vector alu accesses
system.cpu03.num_vec_insts                          0                       # number of vector instructions
system.cpu03.num_vec_register_reads                 0                       # number of times the vector registers were read
system.cpu03.num_vec_register_writes                0                       # number of times the vector registers were written
system.cpu03.op_class::No_OpClass                   0                       # Class of executed instruction
system.cpu03.op_class::IntAlu                       0                       # Class of executed instruction
system.cpu03.op_class::IntMult                      0                       # Class of executed instruction
system.cpu03.op_class::IntDiv                       0                       # Class of executed instruction
system.cpu03.op_class::FloatAdd                     0                       # Class of executed instruction
system.cpu03.op_class::FloatCmp                     0                       # Class of executed instruction
system.cpu03.op_class::FloatCvt                     0                       # Class of executed instruction
system.cpu03.op_class::FloatMult                    0                       # Class of executed instruction
system.cpu03.op_class::FloatMultAcc                 0                       # Class of executed instruction
system.cpu03.op_class::FloatDiv                     0                       # Class of executed instruction
system.cpu03.op_class::FloatMisc                    0                       # Class of executed instruction
system.cpu03.op_class::FloatSqrt                    0                       # Class of executed instruction
system.cpu03.op_class::SimdAdd                      0                       # Class of executed instruction
system.cpu03.op_class::SimdAddAcc                   0                       # Class of executed instruction
system.cpu03.op_class::SimdAlu                      0                       # Class of executed instruction
system.cpu03.op_class::SimdCmp                      0                       # Class of executed instruction
system.cpu03.op_class::SimdCvt                      0                       # Class of executed instruction
system.cpu03.op_class::SimdMisc                     0                       # Class of executed instruction
system.cpu03.op_class::SimdMult                     0                       # Class of executed instruction
system.cpu03.op_class::SimdMultAcc                  0                       # Class of executed instruction
system.cpu03.op_class::SimdShift                    0                       # Class of executed instruction
system.cpu03.op_class::SimdShiftAcc                 0                       # Class of executed instruction
system.cpu03.op_class::SimdDiv                      0                       # Class of executed instruction
system.cpu03.op_class::SimdSqrt                     0                       # Class of executed instruction
system.cpu03.op_class::SimdFloatAdd                 0                       # Class of executed instruction
system.cpu03.op_class::SimdFloatAlu                 0                       # Class of executed instruction
system.cpu03.op_class::SimdFloatCmp                 0                       # Class of executed instruction
system.cpu03.op_class::SimdFloatCvt                 0                       # Class of executed instruction
system.cpu03.op_class::SimdFloatDiv                 0                       # Class of executed instruction
system.cpu03.op_class::SimdFloatMisc                0                       # Class of executed instruction
system.cpu03.op_class::SimdFloatMult                0                       # Class of executed instruction
system.cpu03.op_class::SimdFloatMultAcc             0                       # Class of executed instruction
system.cpu03.op_class::SimdFloatSqrt                0                       # Class of executed instruction
system.cpu03.op_class::SimdReduceAdd                0                       # Class of executed instruction
system.cpu03.op_class::SimdReduceAlu                0                       # Class of executed instruction
system.cpu03.op_class::SimdReduceCmp                0                       # Class of executed instruction
system.cpu03.op_class::SimdFloatReduceAdd            0                       # Class of executed instruction
system.cpu03.op_class::SimdFloatReduceCmp            0                       # Class of executed instruction
system.cpu03.op_class::SimdAes                      0                       # Class of executed instruction
system.cpu03.op_class::SimdAesMix                   0                       # Class of executed instruction
system.cpu03.op_class::SimdSha1Hash                 0                       # Class of executed instruction
system.cpu03.op_class::SimdSha1Hash2                0                       # Class of executed instruction
system.cpu03.op_class::SimdSha256Hash               0                       # Class of executed instruction
system.cpu03.op_class::SimdSha256Hash2              0                       # Class of executed instruction
system.cpu03.op_class::SimdShaSigma2                0                       # Class of executed instruction
system.cpu03.op_class::SimdShaSigma3                0                       # Class of executed instruction
system.cpu03.op_class::SimdPredAlu                  0                       # Class of executed instruction
system.cpu03.op_class::MemRead                      0                       # Class of executed instruction
system.cpu03.op_class::MemWrite                     0                       # Class of executed instruction
system.cpu03.op_class::FloatMemRead                 0                       # Class of executed instruction
system.cpu03.op_class::FloatMemWrite                0                       # Class of executed instruction
system.cpu03.op_class::IprAccess                    0                       # Class of executed instruction
system.cpu03.op_class::InstPrefetch                 0                       # Class of executed instruction
system.cpu03.op_class::total                        0                       # Class of executed instruction
system.cpu04.committedInsts                         0                       # Number of instructions committed
system.cpu04.committedOps                           0                       # Number of ops (including micro ops) committed
system.cpu04.dtb.rdAccesses                         0                       # TLB accesses on read requests
system.cpu04.dtb.rdMisses                           0                       # TLB misses on read requests
system.cpu04.dtb.wrAccesses                         0                       # TLB accesses on write requests
system.cpu04.dtb.wrMisses                           0                       # TLB misses on write requests
system.cpu04.idle_fraction                          1                       # Percentage of idle cycles
system.cpu04.itb.rdAccesses                         0                       # TLB accesses on read requests
system.cpu04.itb.rdMisses                           0                       # TLB misses on read requests
system.cpu04.itb.wrAccesses                         0                       # TLB accesses on write requests
system.cpu04.itb.wrMisses                           0                       # TLB misses on write requests
system.cpu04.not_idle_fraction                      0                       # Percentage of non-idle cycles
system.cpu04.numCycles                              0                       # number of cpu cycles simulated
system.cpu04.numWorkItemsCompleted                  0                       # number of work items this cpu completed
system.cpu04.numWorkItemsStarted                    0                       # number of work items this cpu started
system.cpu04.num_busy_cycles                        0                       # Number of busy cycles
system.cpu04.num_conditional_control_insts            0                       # number of instructions that are conditional controls
system.cpu04.num_fp_alu_accesses                    0                       # Number of float alu accesses
system.cpu04.num_fp_insts                           0                       # number of float instructions
system.cpu04.num_fp_register_reads                  0                       # number of times the floating registers were read
system.cpu04.num_fp_register_writes                 0                       # number of times the floating registers were written
system.cpu04.num_func_calls                         0                       # number of times a function call or return occured
system.cpu04.num_idle_cycles                        0                       # Number of idle cycles
system.cpu04.num_int_alu_accesses                   0                       # Number of integer alu accesses
system.cpu04.num_int_insts                          0                       # number of integer instructions
system.cpu04.num_int_register_reads                 0                       # number of times the integer registers were read
system.cpu04.num_int_register_writes                0                       # number of times the integer registers were written
system.cpu04.num_load_insts                         0                       # Number of load instructions
system.cpu04.num_mem_refs                           0                       # number of memory refs
system.cpu04.num_store_insts                        0                       # Number of store instructions
system.cpu04.num_vec_alu_accesses                   0                       # Number of vector alu accesses
system.cpu04.num_vec_insts                          0                       # number of vector instructions
system.cpu04.num_vec_register_reads                 0                       # number of times the vector registers were read
system.cpu04.num_vec_register_writes                0                       # number of times the vector registers were written
system.cpu04.op_class::No_OpClass                   0                       # Class of executed instruction
system.cpu04.op_class::IntAlu                       0                       # Class of executed instruction
system.cpu04.op_class::IntMult                      0                       # Class of executed instruction
system.cpu04.op_class::IntDiv                       0                       # Class of executed instruction
system.cpu04.op_class::FloatAdd                     0                       # Class of executed instruction
system.cpu04.op_class::FloatCmp                     0                       # Class of executed instruction
system.cpu04.op_class::FloatCvt                     0                       # Class of executed instruction
system.cpu04.op_class::FloatMult                    0                       # Class of executed instruction
system.cpu04.op_class::FloatMultAcc                 0                       # Class of executed instruction
system.cpu04.op_class::FloatDiv                     0                       # Class of executed instruction
system.cpu04.op_class::FloatMisc                    0                       # Class of executed instruction
system.cpu04.op_class::FloatSqrt                    0                       # Class of executed instruction
system.cpu04.op_class::SimdAdd                      0                       # Class of executed instruction
system.cpu04.op_class::SimdAddAcc                   0                       # Class of executed instruction
system.cpu04.op_class::SimdAlu                      0                       # Class of executed instruction
system.cpu04.op_class::SimdCmp                      0                       # Class of executed instruction
system.cpu04.op_class::SimdCvt                      0                       # Class of executed instruction
system.cpu04.op_class::SimdMisc                     0                       # Class of executed instruction
system.cpu04.op_class::SimdMult                     0                       # Class of executed instruction
system.cpu04.op_class::SimdMultAcc                  0                       # Class of executed instruction
system.cpu04.op_class::SimdShift                    0                       # Class of executed instruction
system.cpu04.op_class::SimdShiftAcc                 0                       # Class of executed instruction
system.cpu04.op_class::SimdDiv                      0                       # Class of executed instruction
system.cpu04.op_class::SimdSqrt                     0                       # Class of executed instruction
system.cpu04.op_class::SimdFloatAdd                 0                       # Class of executed instruction
system.cpu04.op_class::SimdFloatAlu                 0                       # Class of executed instruction
system.cpu04.op_class::SimdFloatCmp                 0                       # Class of executed instruction
system.cpu04.op_class::SimdFloatCvt                 0                       # Class of executed instruction
system.cpu04.op_class::SimdFloatDiv                 0                       # Class of executed instruction
system.cpu04.op_class::SimdFloatMisc                0                       # Class of executed instruction
system.cpu04.op_class::SimdFloatMult                0                       # Class of executed instruction
system.cpu04.op_class::SimdFloatMultAcc             0                       # Class of executed instruction
system.cpu04.op_class::SimdFloatSqrt                0                       # Class of executed instruction
system.cpu04.op_class::SimdReduceAdd                0                       # Class of executed instruction
system.cpu04.op_class::SimdReduceAlu                0                       # Class of executed instruction
system.cpu04.op_class::SimdReduceCmp                0                       # Class of executed instruction
system.cpu04.op_class::SimdFloatReduceAdd            0                       # Class of executed instruction
system.cpu04.op_class::SimdFloatReduceCmp            0                       # Class of executed instruction
system.cpu04.op_class::SimdAes                      0                       # Class of executed instruction
system.cpu04.op_class::SimdAesMix                   0                       # Class of executed instruction
system.cpu04.op_class::SimdSha1Hash                 0                       # Class of executed instruction
system.cpu04.op_class::SimdSha1Hash2                0                       # Class of executed instruction
system.cpu04.op_class::SimdSha256Hash               0                       # Class of executed instruction
system.cpu04.op_class::SimdSha256Hash2              0                       # Class of executed instruction
system.cpu04.op_class::SimdShaSigma2                0                       # Class of executed instruction
system.cpu04.op_class::SimdShaSigma3                0                       # Class of executed instruction
system.cpu04.op_class::SimdPredAlu                  0                       # Class of executed instruction
system.cpu04.op_class::MemRead                      0                       # Class of executed instruction
system.cpu04.op_class::MemWrite                     0                       # Class of executed instruction
system.cpu04.op_class::FloatMemRead                 0                       # Class of executed instruction
system.cpu04.op_class::FloatMemWrite                0                       # Class of executed instruction
system.cpu04.op_class::IprAccess                    0                       # Class of executed instruction
system.cpu04.op_class::InstPrefetch                 0                       # Class of executed instruction
system.cpu04.op_class::total                        0                       # Class of executed instruction
system.cpu05.committedInsts                         0                       # Number of instructions committed
system.cpu05.committedOps                           0                       # Number of ops (including micro ops) committed
system.cpu05.dtb.rdAccesses                         0                       # TLB accesses on read requests
system.cpu05.dtb.rdMisses                           0                       # TLB misses on read requests
system.cpu05.dtb.wrAccesses                         0                       # TLB accesses on write requests
system.cpu05.dtb.wrMisses                           0                       # TLB misses on write requests
system.cpu05.idle_fraction                          1                       # Percentage of idle cycles
system.cpu05.itb.rdAccesses                         0                       # TLB accesses on read requests
system.cpu05.itb.rdMisses                           0                       # TLB misses on read requests
system.cpu05.itb.wrAccesses                         0                       # TLB accesses on write requests
system.cpu05.itb.wrMisses                           0                       # TLB misses on write requests
system.cpu05.not_idle_fraction                      0                       # Percentage of non-idle cycles
system.cpu05.numCycles                              0                       # number of cpu cycles simulated
system.cpu05.numWorkItemsCompleted                  0                       # number of work items this cpu completed
system.cpu05.numWorkItemsStarted                    0                       # number of work items this cpu started
system.cpu05.num_busy_cycles                        0                       # Number of busy cycles
system.cpu05.num_conditional_control_insts            0                       # number of instructions that are conditional controls
system.cpu05.num_fp_alu_accesses                    0                       # Number of float alu accesses
system.cpu05.num_fp_insts                           0                       # number of float instructions
system.cpu05.num_fp_register_reads                  0                       # number of times the floating registers were read
system.cpu05.num_fp_register_writes                 0                       # number of times the floating registers were written
system.cpu05.num_func_calls                         0                       # number of times a function call or return occured
system.cpu05.num_idle_cycles                        0                       # Number of idle cycles
system.cpu05.num_int_alu_accesses                   0                       # Number of integer alu accesses
system.cpu05.num_int_insts                          0                       # number of integer instructions
system.cpu05.num_int_register_reads                 0                       # number of times the integer registers were read
system.cpu05.num_int_register_writes                0                       # number of times the integer registers were written
system.cpu05.num_load_insts                         0                       # Number of load instructions
system.cpu05.num_mem_refs                           0                       # number of memory refs
system.cpu05.num_store_insts                        0                       # Number of store instructions
system.cpu05.num_vec_alu_accesses                   0                       # Number of vector alu accesses
system.cpu05.num_vec_insts                          0                       # number of vector instructions
system.cpu05.num_vec_register_reads                 0                       # number of times the vector registers were read
system.cpu05.num_vec_register_writes                0                       # number of times the vector registers were written
system.cpu05.op_class::No_OpClass                   0                       # Class of executed instruction
system.cpu05.op_class::IntAlu                       0                       # Class of executed instruction
system.cpu05.op_class::IntMult                      0                       # Class of executed instruction
system.cpu05.op_class::IntDiv                       0                       # Class of executed instruction
system.cpu05.op_class::FloatAdd                     0                       # Class of executed instruction
system.cpu05.op_class::FloatCmp                     0                       # Class of executed instruction
system.cpu05.op_class::FloatCvt                     0                       # Class of executed instruction
system.cpu05.op_class::FloatMult                    0                       # Class of executed instruction
system.cpu05.op_class::FloatMultAcc                 0                       # Class of executed instruction
system.cpu05.op_class::FloatDiv                     0                       # Class of executed instruction
system.cpu05.op_class::FloatMisc                    0                       # Class of executed instruction
system.cpu05.op_class::FloatSqrt                    0                       # Class of executed instruction
system.cpu05.op_class::SimdAdd                      0                       # Class of executed instruction
system.cpu05.op_class::SimdAddAcc                   0                       # Class of executed instruction
system.cpu05.op_class::SimdAlu                      0                       # Class of executed instruction
system.cpu05.op_class::SimdCmp                      0                       # Class of executed instruction
system.cpu05.op_class::SimdCvt                      0                       # Class of executed instruction
system.cpu05.op_class::SimdMisc                     0                       # Class of executed instruction
system.cpu05.op_class::SimdMult                     0                       # Class of executed instruction
system.cpu05.op_class::SimdMultAcc                  0                       # Class of executed instruction
system.cpu05.op_class::SimdShift                    0                       # Class of executed instruction
system.cpu05.op_class::SimdShiftAcc                 0                       # Class of executed instruction
system.cpu05.op_class::SimdDiv                      0                       # Class of executed instruction
system.cpu05.op_class::SimdSqrt                     0                       # Class of executed instruction
system.cpu05.op_class::SimdFloatAdd                 0                       # Class of executed instruction
system.cpu05.op_class::SimdFloatAlu                 0                       # Class of executed instruction
system.cpu05.op_class::SimdFloatCmp                 0                       # Class of executed instruction
system.cpu05.op_class::SimdFloatCvt                 0                       # Class of executed instruction
system.cpu05.op_class::SimdFloatDiv                 0                       # Class of executed instruction
system.cpu05.op_class::SimdFloatMisc                0                       # Class of executed instruction
system.cpu05.op_class::SimdFloatMult                0                       # Class of executed instruction
system.cpu05.op_class::SimdFloatMultAcc             0                       # Class of executed instruction
system.cpu05.op_class::SimdFloatSqrt                0                       # Class of executed instruction
system.cpu05.op_class::SimdReduceAdd                0                       # Class of executed instruction
system.cpu05.op_class::SimdReduceAlu                0                       # Class of executed instruction
system.cpu05.op_class::SimdReduceCmp                0                       # Class of executed instruction
system.cpu05.op_class::SimdFloatReduceAdd            0                       # Class of executed instruction
system.cpu05.op_class::SimdFloatReduceCmp            0                       # Class of executed instruction
system.cpu05.op_class::SimdAes                      0                       # Class of executed instruction
system.cpu05.op_class::SimdAesMix                   0                       # Class of executed instruction
system.cpu05.op_class::SimdSha1Hash                 0                       # Class of executed instruction
system.cpu05.op_class::SimdSha1Hash2                0                       # Class of executed instruction
system.cpu05.op_class::SimdSha256Hash               0                       # Class of executed instruction
system.cpu05.op_class::SimdSha256Hash2              0                       # Class of executed instruction
system.cpu05.op_class::SimdShaSigma2                0                       # Class of executed instruction
system.cpu05.op_class::SimdShaSigma3                0                       # Class of executed instruction
system.cpu05.op_class::SimdPredAlu                  0                       # Class of executed instruction
system.cpu05.op_class::MemRead                      0                       # Class of executed instruction
system.cpu05.op_class::MemWrite                     0                       # Class of executed instruction
system.cpu05.op_class::FloatMemRead                 0                       # Class of executed instruction
system.cpu05.op_class::FloatMemWrite                0                       # Class of executed instruction
system.cpu05.op_class::IprAccess                    0                       # Class of executed instruction
system.cpu05.op_class::InstPrefetch                 0                       # Class of executed instruction
system.cpu05.op_class::total                        0                       # Class of executed instruction
system.cpu06.committedInsts                         0                       # Number of instructions committed
system.cpu06.committedOps                           0                       # Number of ops (including micro ops) committed
system.cpu06.dtb.rdAccesses                         0                       # TLB accesses on read requests
system.cpu06.dtb.rdMisses                           0                       # TLB misses on read requests
system.cpu06.dtb.wrAccesses                         0                       # TLB accesses on write requests
system.cpu06.dtb.wrMisses                           0                       # TLB misses on write requests
system.cpu06.idle_fraction                          1                       # Percentage of idle cycles
system.cpu06.itb.rdAccesses                         0                       # TLB accesses on read requests
system.cpu06.itb.rdMisses                           0                       # TLB misses on read requests
system.cpu06.itb.wrAccesses                         0                       # TLB accesses on write requests
system.cpu06.itb.wrMisses                           0                       # TLB misses on write requests
system.cpu06.not_idle_fraction                      0                       # Percentage of non-idle cycles
system.cpu06.numCycles                              0                       # number of cpu cycles simulated
system.cpu06.numWorkItemsCompleted                  0                       # number of work items this cpu completed
system.cpu06.numWorkItemsStarted                    0                       # number of work items this cpu started
system.cpu06.num_busy_cycles                        0                       # Number of busy cycles
system.cpu06.num_conditional_control_insts            0                       # number of instructions that are conditional controls
system.cpu06.num_fp_alu_accesses                    0                       # Number of float alu accesses
system.cpu06.num_fp_insts                           0                       # number of float instructions
system.cpu06.num_fp_register_reads                  0                       # number of times the floating registers were read
system.cpu06.num_fp_register_writes                 0                       # number of times the floating registers were written
system.cpu06.num_func_calls                         0                       # number of times a function call or return occured
system.cpu06.num_idle_cycles                        0                       # Number of idle cycles
system.cpu06.num_int_alu_accesses                   0                       # Number of integer alu accesses
system.cpu06.num_int_insts                          0                       # number of integer instructions
system.cpu06.num_int_register_reads                 0                       # number of times the integer registers were read
system.cpu06.num_int_register_writes                0                       # number of times the integer registers were written
system.cpu06.num_load_insts                         0                       # Number of load instructions
system.cpu06.num_mem_refs                           0                       # number of memory refs
system.cpu06.num_store_insts                        0                       # Number of store instructions
system.cpu06.num_vec_alu_accesses                   0                       # Number of vector alu accesses
system.cpu06.num_vec_insts                          0                       # number of vector instructions
system.cpu06.num_vec_register_reads                 0                       # number of times the vector registers were read
system.cpu06.num_vec_register_writes                0                       # number of times the vector registers were written
system.cpu06.op_class::No_OpClass                   0                       # Class of executed instruction
system.cpu06.op_class::IntAlu                       0                       # Class of executed instruction
system.cpu06.op_class::IntMult                      0                       # Class of executed instruction
system.cpu06.op_class::IntDiv                       0                       # Class of executed instruction
system.cpu06.op_class::FloatAdd                     0                       # Class of executed instruction
system.cpu06.op_class::FloatCmp                     0                       # Class of executed instruction
system.cpu06.op_class::FloatCvt                     0                       # Class of executed instruction
system.cpu06.op_class::FloatMult                    0                       # Class of executed instruction
system.cpu06.op_class::FloatMultAcc                 0                       # Class of executed instruction
system.cpu06.op_class::FloatDiv                     0                       # Class of executed instruction
system.cpu06.op_class::FloatMisc                    0                       # Class of executed instruction
system.cpu06.op_class::FloatSqrt                    0                       # Class of executed instruction
system.cpu06.op_class::SimdAdd                      0                       # Class of executed instruction
system.cpu06.op_class::SimdAddAcc                   0                       # Class of executed instruction
system.cpu06.op_class::SimdAlu                      0                       # Class of executed instruction
system.cpu06.op_class::SimdCmp                      0                       # Class of executed instruction
system.cpu06.op_class::SimdCvt                      0                       # Class of executed instruction
system.cpu06.op_class::SimdMisc                     0                       # Class of executed instruction
system.cpu06.op_class::SimdMult                     0                       # Class of executed instruction
system.cpu06.op_class::SimdMultAcc                  0                       # Class of executed instruction
system.cpu06.op_class::SimdShift                    0                       # Class of executed instruction
system.cpu06.op_class::SimdShiftAcc                 0                       # Class of executed instruction
system.cpu06.op_class::SimdDiv                      0                       # Class of executed instruction
system.cpu06.op_class::SimdSqrt                     0                       # Class of executed instruction
system.cpu06.op_class::SimdFloatAdd                 0                       # Class of executed instruction
system.cpu06.op_class::SimdFloatAlu                 0                       # Class of executed instruction
system.cpu06.op_class::SimdFloatCmp                 0                       # Class of executed instruction
system.cpu06.op_class::SimdFloatCvt                 0                       # Class of executed instruction
system.cpu06.op_class::SimdFloatDiv                 0                       # Class of executed instruction
system.cpu06.op_class::SimdFloatMisc                0                       # Class of executed instruction
system.cpu06.op_class::SimdFloatMult                0                       # Class of executed instruction
system.cpu06.op_class::SimdFloatMultAcc             0                       # Class of executed instruction
system.cpu06.op_class::SimdFloatSqrt                0                       # Class of executed instruction
system.cpu06.op_class::SimdReduceAdd                0                       # Class of executed instruction
system.cpu06.op_class::SimdReduceAlu                0                       # Class of executed instruction
system.cpu06.op_class::SimdReduceCmp                0                       # Class of executed instruction
system.cpu06.op_class::SimdFloatReduceAdd            0                       # Class of executed instruction
system.cpu06.op_class::SimdFloatReduceCmp            0                       # Class of executed instruction
system.cpu06.op_class::SimdAes                      0                       # Class of executed instruction
system.cpu06.op_class::SimdAesMix                   0                       # Class of executed instruction
system.cpu06.op_class::SimdSha1Hash                 0                       # Class of executed instruction
system.cpu06.op_class::SimdSha1Hash2                0                       # Class of executed instruction
system.cpu06.op_class::SimdSha256Hash               0                       # Class of executed instruction
system.cpu06.op_class::SimdSha256Hash2              0                       # Class of executed instruction
system.cpu06.op_class::SimdShaSigma2                0                       # Class of executed instruction
system.cpu06.op_class::SimdShaSigma3                0                       # Class of executed instruction
system.cpu06.op_class::SimdPredAlu                  0                       # Class of executed instruction
system.cpu06.op_class::MemRead                      0                       # Class of executed instruction
system.cpu06.op_class::MemWrite                     0                       # Class of executed instruction
system.cpu06.op_class::FloatMemRead                 0                       # Class of executed instruction
system.cpu06.op_class::FloatMemWrite                0                       # Class of executed instruction
system.cpu06.op_class::IprAccess                    0                       # Class of executed instruction
system.cpu06.op_class::InstPrefetch                 0                       # Class of executed instruction
system.cpu06.op_class::total                        0                       # Class of executed instruction
system.cpu07.committedInsts                         0                       # Number of instructions committed
system.cpu07.committedOps                           0                       # Number of ops (including micro ops) committed
system.cpu07.dtb.rdAccesses                         0                       # TLB accesses on read requests
system.cpu07.dtb.rdMisses                           0                       # TLB misses on read requests
system.cpu07.dtb.wrAccesses                         0                       # TLB accesses on write requests
system.cpu07.dtb.wrMisses                           0                       # TLB misses on write requests
system.cpu07.idle_fraction                          1                       # Percentage of idle cycles
system.cpu07.itb.rdAccesses                         0                       # TLB accesses on read requests
system.cpu07.itb.rdMisses                           0                       # TLB misses on read requests
system.cpu07.itb.wrAccesses                         0                       # TLB accesses on write requests
system.cpu07.itb.wrMisses                           0                       # TLB misses on write requests
system.cpu07.not_idle_fraction                      0                       # Percentage of non-idle cycles
system.cpu07.numCycles                              0                       # number of cpu cycles simulated
system.cpu07.numWorkItemsCompleted                  0                       # number of work items this cpu completed
system.cpu07.numWorkItemsStarted                    0                       # number of work items this cpu started
system.cpu07.num_busy_cycles                        0                       # Number of busy cycles
system.cpu07.num_conditional_control_insts            0                       # number of instructions that are conditional controls
system.cpu07.num_fp_alu_accesses                    0                       # Number of float alu accesses
system.cpu07.num_fp_insts                           0                       # number of float instructions
system.cpu07.num_fp_register_reads                  0                       # number of times the floating registers were read
system.cpu07.num_fp_register_writes                 0                       # number of times the floating registers were written
system.cpu07.num_func_calls                         0                       # number of times a function call or return occured
system.cpu07.num_idle_cycles                        0                       # Number of idle cycles
system.cpu07.num_int_alu_accesses                   0                       # Number of integer alu accesses
system.cpu07.num_int_insts                          0                       # number of integer instructions
system.cpu07.num_int_register_reads                 0                       # number of times the integer registers were read
system.cpu07.num_int_register_writes                0                       # number of times the integer registers were written
system.cpu07.num_load_insts                         0                       # Number of load instructions
system.cpu07.num_mem_refs                           0                       # number of memory refs
system.cpu07.num_store_insts                        0                       # Number of store instructions
system.cpu07.num_vec_alu_accesses                   0                       # Number of vector alu accesses
system.cpu07.num_vec_insts                          0                       # number of vector instructions
system.cpu07.num_vec_register_reads                 0                       # number of times the vector registers were read
system.cpu07.num_vec_register_writes                0                       # number of times the vector registers were written
system.cpu07.op_class::No_OpClass                   0                       # Class of executed instruction
system.cpu07.op_class::IntAlu                       0                       # Class of executed instruction
system.cpu07.op_class::IntMult                      0                       # Class of executed instruction
system.cpu07.op_class::IntDiv                       0                       # Class of executed instruction
system.cpu07.op_class::FloatAdd                     0                       # Class of executed instruction
system.cpu07.op_class::FloatCmp                     0                       # Class of executed instruction
system.cpu07.op_class::FloatCvt                     0                       # Class of executed instruction
system.cpu07.op_class::FloatMult                    0                       # Class of executed instruction
system.cpu07.op_class::FloatMultAcc                 0                       # Class of executed instruction
system.cpu07.op_class::FloatDiv                     0                       # Class of executed instruction
system.cpu07.op_class::FloatMisc                    0                       # Class of executed instruction
system.cpu07.op_class::FloatSqrt                    0                       # Class of executed instruction
system.cpu07.op_class::SimdAdd                      0                       # Class of executed instruction
system.cpu07.op_class::SimdAddAcc                   0                       # Class of executed instruction
system.cpu07.op_class::SimdAlu                      0                       # Class of executed instruction
system.cpu07.op_class::SimdCmp                      0                       # Class of executed instruction
system.cpu07.op_class::SimdCvt                      0                       # Class of executed instruction
system.cpu07.op_class::SimdMisc                     0                       # Class of executed instruction
system.cpu07.op_class::SimdMult                     0                       # Class of executed instruction
system.cpu07.op_class::SimdMultAcc                  0                       # Class of executed instruction
system.cpu07.op_class::SimdShift                    0                       # Class of executed instruction
system.cpu07.op_class::SimdShiftAcc                 0                       # Class of executed instruction
system.cpu07.op_class::SimdDiv                      0                       # Class of executed instruction
system.cpu07.op_class::SimdSqrt                     0                       # Class of executed instruction
system.cpu07.op_class::SimdFloatAdd                 0                       # Class of executed instruction
system.cpu07.op_class::SimdFloatAlu                 0                       # Class of executed instruction
system.cpu07.op_class::SimdFloatCmp                 0                       # Class of executed instruction
system.cpu07.op_class::SimdFloatCvt                 0                       # Class of executed instruction
system.cpu07.op_class::SimdFloatDiv                 0                       # Class of executed instruction
system.cpu07.op_class::SimdFloatMisc                0                       # Class of executed instruction
system.cpu07.op_class::SimdFloatMult                0                       # Class of executed instruction
system.cpu07.op_class::SimdFloatMultAcc             0                       # Class of executed instruction
system.cpu07.op_class::SimdFloatSqrt                0                       # Class of executed instruction
system.cpu07.op_class::SimdReduceAdd                0                       # Class of executed instruction
system.cpu07.op_class::SimdReduceAlu                0                       # Class of executed instruction
system.cpu07.op_class::SimdReduceCmp                0                       # Class of executed instruction
system.cpu07.op_class::SimdFloatReduceAdd            0                       # Class of executed instruction
system.cpu07.op_class::SimdFloatReduceCmp            0                       # Class of executed instruction
system.cpu07.op_class::SimdAes                      0                       # Class of executed instruction
system.cpu07.op_class::SimdAesMix                   0                       # Class of executed instruction
system.cpu07.op_class::SimdSha1Hash                 0                       # Class of executed instruction
system.cpu07.op_class::SimdSha1Hash2                0                       # Class of executed instruction
system.cpu07.op_class::SimdSha256Hash               0                       # Class of executed instruction
system.cpu07.op_class::SimdSha256Hash2              0                       # Class of executed instruction
system.cpu07.op_class::SimdShaSigma2                0                       # Class of executed instruction
system.cpu07.op_class::SimdShaSigma3                0                       # Class of executed instruction
system.cpu07.op_class::SimdPredAlu                  0                       # Class of executed instruction
system.cpu07.op_class::MemRead                      0                       # Class of executed instruction
system.cpu07.op_class::MemWrite                     0                       # Class of executed instruction
system.cpu07.op_class::FloatMemRead                 0                       # Class of executed instruction
system.cpu07.op_class::FloatMemWrite                0                       # Class of executed instruction
system.cpu07.op_class::IprAccess                    0                       # Class of executed instruction
system.cpu07.op_class::InstPrefetch                 0                       # Class of executed instruction
system.cpu07.op_class::total                        0                       # Class of executed instruction
system.cpu08.committedInsts                         0                       # Number of instructions committed
system.cpu08.committedOps                           0                       # Number of ops (including micro ops) committed
system.cpu08.dtb.rdAccesses                         0                       # TLB accesses on read requests
system.cpu08.dtb.rdMisses                           0                       # TLB misses on read requests
system.cpu08.dtb.wrAccesses                         0                       # TLB accesses on write requests
system.cpu08.dtb.wrMisses                           0                       # TLB misses on write requests
system.cpu08.idle_fraction                          1                       # Percentage of idle cycles
[...]
system.mem_ctrls59.wrQLenPdf::24                    0                       # What write queue length does an incoming req see
system.mem_ctrls59.wrQLenPdf::25                    0                       # What write queue length does an incoming req see
system.mem_ctrls59.wrQLenPdf::26                    0                       # What write queue length does an incoming req see
system.mem_ctrls59.wrQLenPdf::27                    0                       # What write queue length does an incoming req see
system.mem_ctrls59.wrQLenPdf::28                    0                       # What write queue length does an incoming req see
system.mem_ctrls59.wrQLenPdf::29                    0                       # What write queue length does an incoming req see
system.mem_ctrls59.wrQLenPdf::30                    0                       # What write queue length does an incoming req see
system.mem_ctrls59.wrQLenPdf::31                    0                       # What write queue length does an incoming req see
system.mem_ctrls59.wrQLenPdf::32                    0                       # What write queue length does an incoming req see
system.mem_ctrls59.wrQLenPdf::33                    0                       # What write queue length does an incoming req see
system.mem_ctrls59.wrQLenPdf::34                    0                       # What write queue length does an incoming req see
system.mem_ctrls59.wrQLenPdf::35                    0                       # What write queue length does an incoming req see
system.mem_ctrls59.wrQLenPdf::36                    0                       # What write queue length does an incoming req see
system.mem_ctrls59.wrQLenPdf::37                    0                       # What write queue length does an incoming req see
system.mem_ctrls59.wrQLenPdf::38                    0                       # What write queue length does an incoming req see
system.mem_ctrls59.wrQLenPdf::39                    0                       # What write queue length does an incoming req see
system.mem_ctrls59.wrQLenPdf::40                    0                       # What write queue length does an incoming req see
system.mem_ctrls59.wrQLenPdf::41                    0                       # What write queue length does an incoming req see
system.mem_ctrls59.wrQLenPdf::42                    0                       # What write queue length does an incoming req see
system.mem_ctrls59.wrQLenPdf::43                    0                       # What write queue length does an incoming req see
system.mem_ctrls59.wrQLenPdf::44                    0                       # What write queue length does an incoming req see
system.mem_ctrls59.wrQLenPdf::45                    0                       # What write queue length does an incoming req see
system.mem_ctrls59.wrQLenPdf::46                    0                       # What write queue length does an incoming req see
system.mem_ctrls59.wrQLenPdf::47                    0                       # What write queue length does an incoming req see
system.mem_ctrls59.wrQLenPdf::48                    0                       # What write queue length does an incoming req see
system.mem_ctrls59.wrQLenPdf::49                    0                       # What write queue length does an incoming req see
system.mem_ctrls59.wrQLenPdf::50                    0                       # What write queue length does an incoming req see
system.mem_ctrls59.wrQLenPdf::51                    0                       # What write queue length does an incoming req see
system.mem_ctrls59.wrQLenPdf::52                    0                       # What write queue length does an incoming req see
system.mem_ctrls59.wrQLenPdf::53                    0                       # What write queue length does an incoming req see
system.mem_ctrls59.wrQLenPdf::54                    0                       # What write queue length does an incoming req see
system.mem_ctrls59.wrQLenPdf::55                    0                       # What write queue length does an incoming req see
system.mem_ctrls59.wrQLenPdf::56                    0                       # What write queue length does an incoming req see
system.mem_ctrls59.wrQLenPdf::57                    0                       # What write queue length does an incoming req see
system.mem_ctrls59.wrQLenPdf::58                    0                       # What write queue length does an incoming req see
system.mem_ctrls59.wrQLenPdf::59                    0                       # What write queue length does an incoming req see
system.mem_ctrls59.wrQLenPdf::60                    0                       # What write queue length does an incoming req see
system.mem_ctrls59.wrQLenPdf::61                    0                       # What write queue length does an incoming req see
system.mem_ctrls59.wrQLenPdf::62                    0                       # What write queue length does an incoming req see
system.mem_ctrls59.wrQLenPdf::63                    0                       # What write queue length does an incoming req see
system.mem_ctrls59.bytesPerActivate::samples            6                       # Bytes accessed per row activation
system.mem_ctrls59.bytesPerActivate::mean   106.666667                       # Bytes accessed per row activation
system.mem_ctrls59.bytesPerActivate::gmean    96.837488                       # Bytes accessed per row activation
system.mem_ctrls59.bytesPerActivate::stdev    52.255781                       # Bytes accessed per row activation
system.mem_ctrls59.bytesPerActivate::64-79            3     50.00%     50.00% # Bytes accessed per row activation
system.mem_ctrls59.bytesPerActivate::128-143            2     33.33%     83.33% # Bytes accessed per row activation
system.mem_ctrls59.bytesPerActivate::192-207            1     16.67%    100.00% # Bytes accessed per row activation
system.mem_ctrls59.bytesPerActivate::total            6                       # Bytes accessed per row activation
system.mem_ctrls59.bytesReadDRAM                  640                       # Total number of bytes read from DRAM
system.mem_ctrls59.bytesReadWrQ                     0                       # Total number of bytes read from write queue
system.mem_ctrls59.bytesWritten                     0                       # Total number of bytes written to DRAM
system.mem_ctrls59.bytesReadSys                   640                       # Total read bytes from the system interface side
system.mem_ctrls59.bytesWrittenSys                  0                       # Total written bytes from the system interface side
system.mem_ctrls59.avgRdBW                      13.24                       # Average DRAM read bandwidth in MiByte/s
system.mem_ctrls59.avgWrBW                       0.00                       # Average achieved write bandwidth in MiByte/s
system.mem_ctrls59.avgRdBWSys                   13.24                       # Average system read bandwidth in MiByte/s
system.mem_ctrls59.avgWrBWSys                    0.00                       # Average system write bandwidth in MiByte/s
system.mem_ctrls59.peakBW                    12800.00                       # Theoretical peak bandwidth in MiByte/s
system.mem_ctrls59.busUtil                       0.10                       # Data bus utilization in percentage
system.mem_ctrls59.busUtilRead                   0.10                       # Data bus utilization in percentage for reads
system.mem_ctrls59.busUtilWrite                  0.00                       # Data bus utilization in percentage for writes
system.mem_ctrls59.totGap                    41365500                       # Total gap between requests
system.mem_ctrls59.avgGap                  4136550.00                       # Average gap between requests
system.mem_ctrls59.masterReadBytes::.ruby.dir_cntrl59          640                       # Per-master bytes read from memory
system.mem_ctrls59.masterReadRate::.ruby.dir_cntrl59 13241881.588611980900                       # Per-master bytes read from memory rate (Bytes/sec)
system.mem_ctrls59.masterReadAccesses::.ruby.dir_cntrl59           10                       # Per-master read serviced memory accesses
system.mem_ctrls59.masterReadTotalLat::.ruby.dir_cntrl59       270000                       # Per-master read total memory access latency
system.mem_ctrls59.masterReadAvgLat::.ruby.dir_cntrl59     27000.00                       # Per-master read average memory access latency
system.mem_ctrls59.pageHitRate                  40.00                       # Row buffer hit rate, read and write combined
system.mem_ctrls59.rank1.actEnergy                  0                       # Energy for activate commands per rank (pJ)
system.mem_ctrls59.rank1.preEnergy                  0                       # Energy for precharge commands per rank (pJ)
system.mem_ctrls59.rank1.readEnergy                 0                       # Energy for read commands per rank (pJ)
system.mem_ctrls59.rank1.writeEnergy                0                       # Energy for write commands per rank (pJ)
system.mem_ctrls59.rank1.refreshEnergy   3687840.000000                       # Energy for refresh commands per rank (pJ)
system.mem_ctrls59.rank1.actBackEnergy         673740                       # Energy for active background per rank (pJ)
system.mem_ctrls59.rank1.preBackEnergy       17992320                       # Energy for precharge background per rank (pJ)
system.mem_ctrls59.rank1.actPowerDownEnergy            0                       # Energy for active power-down per rank (pJ)
system.mem_ctrls59.rank1.prePowerDownEnergy            0                       # Energy for precharge power-down per rank (pJ)
system.mem_ctrls59.rank1.selfRefreshEnergy            0                       # Energy for self refresh per rank (pJ)
system.mem_ctrls59.rank1.totalEnergy         22353900                       # Total energy per rank (pJ)
system.mem_ctrls59.rank1.averagePower      462.512026                       # Core power per rank (mW)
system.mem_ctrls59.rank1.totalIdleTime              0                       # Total Idle time Per DRAM Rank
system.mem_ctrls59.rank1.memoryStateTime::IDLE     46771500                       # Time in different power states
system.mem_ctrls59.rank1.memoryStateTime::REF      1560000                       # Time in different power states
system.mem_ctrls59.rank1.memoryStateTime::SREF            0                       # Time in different power states
system.mem_ctrls59.rank1.memoryStateTime::PRE_PDN            0                       # Time in different power states
system.mem_ctrls59.rank1.memoryStateTime::ACT            0                       # Time in different power states
system.mem_ctrls59.rank1.memoryStateTime::ACT_PDN            0                       # Time in different power states
system.mem_ctrls59.rank0.actEnergy              42840                       # Energy for activate commands per rank (pJ)
system.mem_ctrls59.rank0.preEnergy              22770                       # Energy for precharge commands per rank (pJ)
system.mem_ctrls59.rank0.readEnergy             71400                       # Energy for read commands per rank (pJ)
system.mem_ctrls59.rank0.writeEnergy                0                       # Energy for write commands per rank (pJ)
system.mem_ctrls59.rank0.refreshEnergy   3687840.000000                       # Energy for refresh commands per rank (pJ)
system.mem_ctrls59.rank0.actBackEnergy       13239960                       # Energy for active background per rank (pJ)
system.mem_ctrls59.rank0.preBackEnergy        7410240                       # Energy for precharge background per rank (pJ)
system.mem_ctrls59.rank0.actPowerDownEnergy            0                       # Energy for active power-down per rank (pJ)
system.mem_ctrls59.rank0.prePowerDownEnergy            0                       # Energy for precharge power-down per rank (pJ)
system.mem_ctrls59.rank0.selfRefreshEnergy            0                       # Energy for self refresh per rank (pJ)
system.mem_ctrls59.rank0.totalEnergy         24475050                       # Total energy per rank (pJ)
system.mem_ctrls59.rank0.averagePower      506.399553                       # Core power per rank (mW)
system.mem_ctrls59.rank0.totalIdleTime              0                       # Total Idle time Per DRAM Rank
system.mem_ctrls59.rank0.memoryStateTime::IDLE     19127756                       # Time in different power states
system.mem_ctrls59.rank0.memoryStateTime::REF      1560000                       # Time in different power states
system.mem_ctrls59.rank0.memoryStateTime::SREF            0                       # Time in different power states
system.mem_ctrls59.rank0.memoryStateTime::PRE_PDN            0                       # Time in different power states
system.mem_ctrls59.rank0.memoryStateTime::ACT     27643744                       # Time in different power states
system.mem_ctrls59.rank0.memoryStateTime::ACT_PDN            0                       # Time in different power states
system.mem_ctrls59.power_state.pwrStateResidencyTicks::UNDEFINED     48331500                       # Cumulative time (in ticks) in various power states
system.cpu29.dtb.walker.power_state.pwrStateResidencyTicks::UNDEFINED     48331500                       # Cumulative time (in ticks) in various power states
system.cpu29.interrupts.clk_domain.clock         8000                       # Clock period in ticks
system.cpu29.itb.walker.power_state.pwrStateResidencyTicks::UNDEFINED     48331500                       # Cumulative time (in ticks) in various power states
system.cpu29.power_state.numTransitions             1                       # Number of power state transitions
system.cpu29.power_state.pwrStateResidencyTicks::ON     48331500                       # Cumulative time (in ticks) in various power states
system.cpu28.dtb.walker.power_state.pwrStateResidencyTicks::UNDEFINED     48331500                       # Cumulative time (in ticks) in various power states
system.cpu28.interrupts.clk_domain.clock         8000                       # Clock period in ticks
system.cpu28.itb.walker.power_state.pwrStateResidencyTicks::UNDEFINED     48331500                       # Cumulative time (in ticks) in various power states
system.cpu28.power_state.numTransitions             1                       # Number of power state transitions
system.cpu28.power_state.pwrStateResidencyTicks::ON     48331500                       # Cumulative time (in ticks) in various power states
system.cpu25.dtb.walker.power_state.pwrStateResidencyTicks::UNDEFINED     48331500                       # Cumulative time (in ticks) in various power states
system.cpu25.interrupts.clk_domain.clock         8000                       # Clock period in ticks
system.cpu25.itb.walker.power_state.pwrStateResidencyTicks::UNDEFINED     48331500                       # Cumulative time (in ticks) in various power states
system.cpu25.power_state.numTransitions             1                       # Number of power state transitions
system.cpu25.power_state.pwrStateResidencyTicks::ON     48331500                       # Cumulative time (in ticks) in various power states
system.cpu24.dtb.walker.power_state.pwrStateResidencyTicks::UNDEFINED     48331500                       # Cumulative time (in ticks) in various power states
system.cpu24.interrupts.clk_domain.clock         8000                       # Clock period in ticks
system.cpu24.itb.walker.power_state.pwrStateResidencyTicks::UNDEFINED     48331500                       # Cumulative time (in ticks) in various power states
system.cpu24.power_state.numTransitions             1                       # Number of power state transitions
system.cpu24.power_state.pwrStateResidencyTicks::ON     48331500                       # Cumulative time (in ticks) in various power states
system.cpu27.dtb.walker.power_state.pwrStateResidencyTicks::UNDEFINED     48331500                       # Cumulative time (in ticks) in various power states
system.cpu27.interrupts.clk_domain.clock         8000                       # Clock period in ticks
system.cpu27.itb.walker.power_state.pwrStateResidencyTicks::UNDEFINED     48331500                       # Cumulative time (in ticks) in various power states
system.cpu27.power_state.numTransitions             1                       # Number of power state transitions
system.cpu27.power_state.pwrStateResidencyTicks::ON     48331500                       # Cumulative time (in ticks) in various power states
system.cpu26.dtb.walker.power_state.pwrStateResidencyTicks::UNDEFINED     48331500                       # Cumulative time (in ticks) in various power states
system.cpu26.interrupts.clk_domain.clock         8000                       # Clock period in ticks
system.cpu26.itb.walker.power_state.pwrStateResidencyTicks::UNDEFINED     48331500                       # Cumulative time (in ticks) in various power states
system.cpu26.power_state.numTransitions             1                       # Number of power state transitions
system.cpu26.power_state.pwrStateResidencyTicks::ON     48331500                       # Cumulative time (in ticks) in various power states
system.cpu21.dtb.walker.power_state.pwrStateResidencyTicks::UNDEFINED     48331500                       # Cumulative time (in ticks) in various power states
system.cpu21.interrupts.clk_domain.clock         8000                       # Clock period in ticks
system.cpu21.itb.walker.power_state.pwrStateResidencyTicks::UNDEFINED     48331500                       # Cumulative time (in ticks) in various power states
system.cpu21.power_state.numTransitions             1                       # Number of power state transitions
system.cpu21.power_state.pwrStateResidencyTicks::ON     48331500                       # Cumulative time (in ticks) in various power states
system.cpu20.dtb.walker.power_state.pwrStateResidencyTicks::UNDEFINED     48331500                       # Cumulative time (in ticks) in various power states
system.cpu20.interrupts.clk_domain.clock         8000                       # Clock period in ticks
system.cpu20.itb.walker.power_state.pwrStateResidencyTicks::UNDEFINED     48331500                       # Cumulative time (in ticks) in various power states
system.cpu20.power_state.numTransitions             1                       # Number of power state transitions
system.cpu20.power_state.pwrStateResidencyTicks::ON     48331500                       # Cumulative time (in ticks) in various power states
system.cpu23.dtb.walker.power_state.pwrStateResidencyTicks::UNDEFINED     48331500                       # Cumulative time (in ticks) in various power states
system.cpu23.interrupts.clk_domain.clock         8000                       # Clock period in ticks
system.cpu23.itb.walker.power_state.pwrStateResidencyTicks::UNDEFINED     48331500                       # Cumulative time (in ticks) in various power states
system.cpu23.power_state.numTransitions             1                       # Number of power state transitions
system.cpu23.power_state.pwrStateResidencyTicks::ON     48331500                       # Cumulative time (in ticks) in various power states
system.cpu22.dtb.walker.power_state.pwrStateResidencyTicks::UNDEFINED     48331500                       # Cumulative time (in ticks) in various power states
system.cpu22.interrupts.clk_domain.clock         8000                       # Clock period in ticks
system.cpu22.itb.walker.power_state.pwrStateResidencyTicks::UNDEFINED     48331500                       # Cumulative time (in ticks) in various power states
system.cpu22.power_state.numTransitions             1                       # Number of power state transitions
system.cpu22.power_state.pwrStateResidencyTicks::ON     48331500                       # Cumulative time (in ticks) in various power states

---------- End Simulation Statistics   ----------
