
---------- Begin Simulation Statistics ----------
final_tick                               47513637752359000                       # Number of ticks from beginning of simulation (restored from checkpoints and never reset)
host_inst_rate                               17066954                       # Simulator instruction rate (inst/s)
host_mem_usage                                5461876                       # Number of bytes of host memory used
host_op_rate                                 17066954                       # Simulator op (including micro ops) rate (op/s)
host_seconds                                 15132.37                       # Real time elapsed on the host
host_tick_rate                           3139867189045                       # Simulator tick rate (ticks/s)
sim_freq                                 1000000000000                       # Frequency of simulated ticks
sim_insts                                258263493241                       # Number of instructions simulated
sim_ops                                  258263493241                       # Number of ops (including micro ops) simulated
sim_seconds                              47513.637752                       # Number of seconds simulated
sim_ticks                                47513637752359000                       # Number of ticks simulated
system.cpu0.committedInsts               100008833807                       # Number of instructions committed
system.cpu0.dtb.rdAccesses                          0                       # TLB accesses on read requests
system.cpu0.dtb.rdMisses                            0                       # TLB misses on read requests
system.cpu0.dtb.wrAccesses                          0                       # TLB accesses on write requests
system.cpu0.dtb.wrMisses                            0                       # TLB misses on write requests
system.cpu0.itb.rdAccesses                          0                       # TLB accesses on read requests
system.cpu0.itb.rdMisses                            0                       # TLB misses on read requests
system.cpu0.itb.wrAccesses                          0                       # TLB accesses on write requests
system.cpu0.itb.wrMisses                            0                       # TLB misses on write requests
system.cpu0.kern.inst.arm                           0                       # number of arm instructions executed
system.cpu0.kern.inst.quiesce                       0                       # number of quiesce instructions executed
system.cpu0.numCoalescedMMIO                        0                       # number of coalesced memory mapped IO requests
system.cpu0.numCycles                    95027226756097                       # number of cpu cycles simulated
system.cpu0.numExitSignal                    90029122                       # exits due to signal delivery
system.cpu0.numHalt                          47833022                       # number of VM exits due to wait for interrupt instructions
system.cpu0.numHypercalls                           0                       # number of hypercalls
system.cpu0.numIO                               35388                       # number of VM exits due to legacy IO
system.cpu0.numInterrupts                    47833998                       # number of interrupts delivered
system.cpu0.numMMIO                          47835458                       # number of VM exits due to memory mapped IO
system.cpu0.numVMExits                      185733412                       # total number of KVM exits
system.cpu0.numVMHalfEntries                     1116                       # number of KVM entries to finalize pending operations
system.cpu0.numWorkItemsCompleted                   0                       # number of work items this cpu completed
system.cpu0.numWorkItemsStarted                     0                       # number of work items this cpu started
system.cpu1.committedInsts                75408036705                       # Number of instructions committed
system.cpu1.dtb.rdAccesses                          0                       # TLB accesses on read requests
system.cpu1.dtb.rdMisses                            0                       # TLB misses on read requests
system.cpu1.dtb.wrAccesses                          0                       # TLB accesses on write requests
system.cpu1.dtb.wrMisses                            0                       # TLB misses on write requests
system.cpu1.itb.rdAccesses                          0                       # TLB accesses on read requests
system.cpu1.itb.rdMisses                            0                       # TLB misses on read requests
system.cpu1.itb.wrAccesses                          0                       # TLB accesses on write requests
system.cpu1.itb.wrMisses                            0                       # TLB misses on write requests
system.cpu1.kern.inst.arm                           0                       # number of arm instructions executed
system.cpu1.kern.inst.quiesce                       0                       # number of quiesce instructions executed
system.cpu1.numCoalescedMMIO                        0                       # number of coalesced memory mapped IO requests
system.cpu1.numCycles                    95027226750186                       # number of cpu cycles simulated
system.cpu1.numExitSignal                   114578384                       # exits due to signal delivery
system.cpu1.numHalt                          47833748                       # number of VM exits due to wait for interrupt instructions
system.cpu1.numHypercalls                           0                       # number of hypercalls
system.cpu1.numIO                                9981                       # number of VM exits due to legacy IO
system.cpu1.numInterrupts                    47834296                       # number of interrupts delivered
system.cpu1.numMMIO                          47835250                       # number of VM exits due to memory mapped IO
system.cpu1.numVMExits                      210257673                       # total number of KVM exits
system.cpu1.numVMHalfEntries                       97                       # number of KVM entries to finalize pending operations
system.cpu1.numWorkItemsCompleted                   0                       # number of work items this cpu completed
system.cpu1.numWorkItemsStarted                     0                       # number of work items this cpu started
system.cpu2.committedInsts                 7660992046                       # Number of instructions committed
system.cpu2.dtb.rdAccesses                          0                       # TLB accesses on read requests
system.cpu2.dtb.rdMisses                            0                       # TLB misses on read requests
system.cpu2.dtb.wrAccesses                          0                       # TLB accesses on write requests
system.cpu2.dtb.wrMisses                            0                       # TLB misses on write requests
system.cpu2.itb.rdAccesses                          0                       # TLB accesses on read requests
system.cpu2.itb.rdMisses                            0                       # TLB misses on read requests
system.cpu2.itb.wrAccesses                          0                       # TLB accesses on write requests
system.cpu2.itb.wrMisses                            0                       # TLB misses on write requests
system.cpu2.kern.inst.arm                           0                       # number of arm instructions executed
system.cpu2.kern.inst.quiesce                       0                       # number of quiesce instructions executed
system.cpu2.numCoalescedMMIO                        0                       # number of coalesced memory mapped IO requests
system.cpu2.numCycles                    95027273907528                       # number of cpu cycles simulated
system.cpu2.numExitSignal                    47972043                       # exits due to signal delivery
system.cpu2.numHalt                          47834176                       # number of VM exits due to wait for interrupt instructions
system.cpu2.numHypercalls                           0                       # number of hypercalls
system.cpu2.numIO                                2072                       # number of VM exits due to legacy IO
system.cpu2.numInterrupts                         437                       # number of interrupts delivered
system.cpu2.numMMIO                               746                       # number of VM exits due to memory mapped IO
system.cpu2.numVMExits                       95809068                       # total number of KVM exits
system.cpu2.numVMHalfEntries                       16                       # number of KVM entries to finalize pending operations
system.cpu2.numWorkItemsCompleted                   0                       # number of work items this cpu completed
system.cpu2.numWorkItemsStarted                     0                       # number of work items this cpu started
system.cpu3.committedInsts                75185630683                       # Number of instructions committed
system.cpu3.dtb.rdAccesses                          0                       # TLB accesses on read requests
system.cpu3.dtb.rdMisses                            0                       # TLB misses on read requests
system.cpu3.dtb.wrAccesses                          0                       # TLB accesses on write requests
system.cpu3.dtb.wrMisses                            0                       # TLB misses on write requests
system.cpu3.itb.rdAccesses                          0                       # TLB accesses on read requests
system.cpu3.itb.rdMisses                            0                       # TLB misses on read requests
system.cpu3.itb.wrAccesses                          0                       # TLB accesses on write requests
system.cpu3.itb.wrMisses                            0                       # TLB misses on write requests
system.cpu3.kern.inst.arm                           0                       # number of arm instructions executed
system.cpu3.kern.inst.quiesce                       0                       # number of quiesce instructions executed
system.cpu3.numCoalescedMMIO                        0                       # number of coalesced memory mapped IO requests
system.cpu3.numCycles                    95027227669042                       # number of cpu cycles simulated
system.cpu3.numExitSignal                    48049868                       # exits due to signal delivery
system.cpu3.numHalt                          47834138                       # number of VM exits due to wait for interrupt instructions
system.cpu3.numHypercalls                           0                       # number of hypercalls
system.cpu3.numIO                                 901                       # number of VM exits due to legacy IO
system.cpu3.numInterrupts                    47834416                       # number of interrupts delivered
system.cpu3.numMMIO                          47834761                       # number of VM exits due to memory mapped IO
system.cpu3.numVMExits                      143719829                       # total number of KVM exits
system.cpu3.numVMHalfEntries                        7                       # number of KVM entries to finalize pending operations
system.cpu3.numWorkItemsCompleted                   0                       # number of work items this cpu completed
system.cpu3.numWorkItemsStarted                     0                       # number of work items this cpu started
system.pc.south_bridge.ide.disks.dma_read_bytes         4096                       # Number of bytes transfered via DMA reads (not PRD).
system.pc.south_bridge.ide.disks.dma_read_full_pages            1                       # Number of full page size DMA reads (not PRD).
system.pc.south_bridge.ide.disks.dma_read_txs            1                       # Number of DMA read transactions (not PRD).
system.pc.south_bridge.ide.disks.dma_write_bytes       178176                       # Number of bytes transfered via DMA writes.
system.pc.south_bridge.ide.disks.dma_write_full_pages           43                       # Number of full page size DMA writes.
system.pc.south_bridge.ide.disks.dma_write_txs           45                       # Number of DMA write transactions.
system.ruby.dma_cntrl0.cache.demand_accesses            0                       # Number of cache demand accesses
system.ruby.dma_cntrl0.cache.demand_hits            0                       # Number of cache demand hits
system.ruby.dma_cntrl0.cache.demand_misses            0                       # Number of cache demand misses
system.ruby.io_controller.cache.demand_accesses            0                       # Number of cache demand accesses
system.ruby.io_controller.cache.demand_hits            0                       # Number of cache demand hits
system.ruby.io_controller.cache.demand_misses            0                       # Number of cache demand misses
system.ruby.l1_cntrl0.cache.demand_accesses            0                       # Number of cache demand accesses
system.ruby.l1_cntrl0.cache.demand_hits             0                       # Number of cache demand hits
system.ruby.l1_cntrl0.cache.demand_misses            0                       # Number of cache demand misses
system.ruby.l1_cntrl1.cache.demand_accesses            0                       # Number of cache demand accesses
system.ruby.l1_cntrl1.cache.demand_hits             0                       # Number of cache demand hits
system.ruby.l1_cntrl1.cache.demand_misses            0                       # Number of cache demand misses
system.ruby.l1_cntrl2.cache.demand_accesses            0                       # Number of cache demand accesses
system.ruby.l1_cntrl2.cache.demand_hits             0                       # Number of cache demand hits
system.ruby.l1_cntrl2.cache.demand_misses            0                       # Number of cache demand misses
system.ruby.l1_cntrl3.cache.demand_accesses            0                       # Number of cache demand accesses
system.ruby.l1_cntrl3.cache.demand_hits             0                       # Number of cache demand hits
system.ruby.l1_cntrl3.cache.demand_misses            0                       # Number of cache demand misses
system.ruby.network.average_flit_latency          nan                      
system.ruby.network.average_flit_network_latency          nan                      
system.ruby.network.average_flit_queueing_latency          nan                      
system.ruby.network.average_flit_vnet_latency |         nan                       |         nan                       |         nan                      
system.ruby.network.average_flit_vqueue_latency |         nan                       |         nan                       |         nan                      
system.ruby.network.average_hops                  nan                      
system.ruby.network.average_packet_latency          nan                      
system.ruby.network.average_packet_network_latency          nan                      
system.ruby.network.average_packet_queueing_latency          nan                      
system.ruby.network.average_packet_vnet_latency |         nan                       |         nan                       |         nan                      
system.ruby.network.average_packet_vqueue_latency |         nan                       |         nan                       |         nan                      
system.ruby.network.avg_link_utilization            0                      
system.ruby.network.ext_in_link_utilization            0                      
system.ruby.network.ext_out_link_utilization            0                      
system.ruby.network.flit_network_latency |           0                       |           0                       |           0                      
system.ruby.network.flit_queueing_latency |           0                       |           0                       |           0                      
system.ruby.network.int_link_utilization            0                      
system.ruby.network.packet_network_latency |           0                       |           0                       |           0                      
system.ruby.network.packet_queueing_latency |           0                       |           0                       |           0                      
system.switch_cpus0.committedInsts                  0                       # Number of instructions committed
system.switch_cpus0.committedOps                    0                       # Number of ops (including micro ops) committed
system.switch_cpus0.dtb.rdAccesses                  0                       # TLB accesses on read requests
system.switch_cpus0.dtb.rdMisses                    0                       # TLB misses on read requests
system.switch_cpus0.dtb.wrAccesses                  0                       # TLB accesses on write requests
system.switch_cpus0.dtb.wrMisses                    0                       # TLB misses on write requests
system.switch_cpus0.idle_fraction                   1                       # Percentage of idle cycles
system.switch_cpus0.itb.rdAccesses                  0                       # TLB accesses on read requests
system.switch_cpus0.itb.rdMisses                    0                       # TLB misses on read requests
system.switch_cpus0.itb.wrAccesses                  0                       # TLB accesses on write requests
system.switch_cpus0.itb.wrMisses                    0                       # TLB misses on write requests
system.switch_cpus0.kern.inst.arm                   0                       # number of arm instructions executed
system.switch_cpus0.kern.inst.quiesce               0                       # number of quiesce instructions executed
system.switch_cpus0.not_idle_fraction               0                       # Percentage of non-idle cycles
system.switch_cpus0.numCycles                       0                       # number of cpu cycles simulated
system.switch_cpus0.numWorkItemsCompleted            0                       # number of work items this cpu completed
system.switch_cpus0.numWorkItemsStarted             0                       # number of work items this cpu started
system.switch_cpus0.num_busy_cycles                 0                       # Number of busy cycles
system.switch_cpus0.num_conditional_control_insts            0                       # number of instructions that are conditional controls
system.switch_cpus0.num_fp_alu_accesses             0                       # Number of float alu accesses
system.switch_cpus0.num_fp_insts                    0                       # number of float instructions
system.switch_cpus0.num_fp_register_reads            0                       # number of times the floating registers were read
system.switch_cpus0.num_fp_register_writes            0                       # number of times the floating registers were written
system.switch_cpus0.num_func_calls                  0                       # number of times a function call or return occured
system.switch_cpus0.num_idle_cycles                 0                       # Number of idle cycles
system.switch_cpus0.num_int_alu_accesses            0                       # Number of integer alu accesses
system.switch_cpus0.num_int_insts                   0                       # number of integer instructions
system.switch_cpus0.num_int_register_reads            0                       # number of times the integer registers were read
system.switch_cpus0.num_int_register_writes            0                       # number of times the integer registers were written
system.switch_cpus0.num_load_insts                  0                       # Number of load instructions
system.switch_cpus0.num_mem_refs                    0                       # number of memory refs
system.switch_cpus0.num_store_insts                 0                       # Number of store instructions
system.switch_cpus0.num_vec_alu_accesses            0                       # Number of vector alu accesses
system.switch_cpus0.num_vec_insts                   0                       # number of vector instructions
system.switch_cpus0.num_vec_register_reads            0                       # number of times the vector registers were read
system.switch_cpus0.num_vec_register_writes            0                       # number of times the vector registers were written
system.switch_cpus0.op_class::No_OpClass            0                       # Class of executed instruction
system.switch_cpus0.op_class::IntAlu                0                       # Class of executed instruction
system.switch_cpus0.op_class::IntMult               0                       # Class of executed instruction
system.switch_cpus0.op_class::IntDiv                0                       # Class of executed instruction
system.switch_cpus0.op_class::FloatAdd              0                       # Class of executed instruction
system.switch_cpus0.op_class::FloatCmp              0                       # Class of executed instruction
system.switch_cpus0.op_class::FloatCvt              0                       # Class of executed instruction
system.switch_cpus0.op_class::FloatMult             0                       # Class of executed instruction
system.switch_cpus0.op_class::FloatMultAcc            0                       # Class of executed instruction
system.switch_cpus0.op_class::FloatDiv              0                       # Class of executed instruction
system.switch_cpus0.op_class::FloatMisc             0                       # Class of executed instruction
system.switch_cpus0.op_class::FloatSqrt             0                       # Class of executed instruction
system.switch_cpus0.op_class::SimdAdd               0                       # Class of executed instruction
system.switch_cpus0.op_class::SimdAddAcc            0                       # Class of executed instruction
system.switch_cpus0.op_class::SimdAlu               0                       # Class of executed instruction
system.switch_cpus0.op_class::SimdCmp               0                       # Class of executed instruction
system.switch_cpus0.op_class::SimdCvt               0                       # Class of executed instruction
system.switch_cpus0.op_class::SimdMisc              0                       # Class of executed instruction
system.switch_cpus0.op_class::SimdMult              0                       # Class of executed instruction
system.switch_cpus0.op_class::SimdMultAcc            0                       # Class of executed instruction
system.switch_cpus0.op_class::SimdShift             0                       # Class of executed instruction
system.switch_cpus0.op_class::SimdShiftAcc            0                       # Class of executed instruction
system.switch_cpus0.op_class::SimdDiv               0                       # Class of executed instruction
system.switch_cpus0.op_class::SimdSqrt              0                       # Class of executed instruction
system.switch_cpus0.op_class::SimdFloatAdd            0                       # Class of executed instruction
system.switch_cpus0.op_class::SimdFloatAlu            0                       # Class of executed instruction
system.switch_cpus0.op_class::SimdFloatCmp            0                       # Class of executed instruction
system.switch_cpus0.op_class::SimdFloatCvt            0                       # Class of executed instruction
system.switch_cpus0.op_class::SimdFloatDiv            0                       # Class of executed instruction
system.switch_cpus0.op_class::SimdFloatMisc            0                       # Class of executed instruction
system.switch_cpus0.op_class::SimdFloatMult            0                       # Class of executed instruction
system.switch_cpus0.op_class::SimdFloatMultAcc            0                       # Class of executed instruction
system.switch_cpus0.op_class::SimdFloatSqrt            0                       # Class of executed instruction
system.switch_cpus0.op_class::SimdReduceAdd            0                       # Class of executed instruction
system.switch_cpus0.op_class::SimdReduceAlu            0                       # Class of executed instruction
system.switch_cpus0.op_class::SimdReduceCmp            0                       # Class of executed instruction
system.switch_cpus0.op_class::SimdFloatReduceAdd            0                       # Class of executed instruction
system.switch_cpus0.op_class::SimdFloatReduceCmp            0                       # Class of executed instruction
system.switch_cpus0.op_class::SimdAes               0                       # Class of executed instruction
system.switch_cpus0.op_class::SimdAesMix            0                       # Class of executed instruction
system.switch_cpus0.op_class::SimdSha1Hash            0                       # Class of executed instruction
system.switch_cpus0.op_class::SimdSha1Hash2            0                       # Class of executed instruction
system.switch_cpus0.op_class::SimdSha256Hash            0                       # Class of executed instruction
system.switch_cpus0.op_class::SimdSha256Hash2            0                       # Class of executed instruction
system.switch_cpus0.op_class::SimdShaSigma2            0                       # Class of executed instruction
system.switch_cpus0.op_class::SimdShaSigma3            0                       # Class of executed instruction
system.switch_cpus0.op_class::SimdPredAlu            0                       # Class of executed instruction
system.switch_cpus0.op_class::MemRead               0                       # Class of executed instruction
system.switch_cpus0.op_class::MemWrite              0                       # Class of executed instruction
system.switch_cpus0.op_class::FloatMemRead            0                       # Class of executed instruction
system.switch_cpus0.op_class::FloatMemWrite            0                       # Class of executed instruction
system.switch_cpus0.op_class::IprAccess             0                       # Class of executed instruction
system.switch_cpus0.op_class::InstPrefetch            0                       # Class of executed instruction
system.switch_cpus0.op_class::total                 0                       # Class of executed instruction
system.switch_cpus1.committedInsts                  0                       # Number of instructions committed
system.switch_cpus1.committedOps                    0                       # Number of ops (including micro ops) committed
system.switch_cpus1.dtb.rdAccesses                  0                       # TLB accesses on read requests
system.switch_cpus1.dtb.rdMisses                    0                       # TLB misses on read requests
system.switch_cpus1.dtb.wrAccesses                  0                       # TLB accesses on write requests
system.switch_cpus1.dtb.wrMisses                    0                       # TLB misses on write requests
system.switch_cpus1.idle_fraction                   1                       # Percentage of idle cycles
system.switch_cpus1.itb.rdAccesses                  0                       # TLB accesses on read requests
system.switch_cpus1.itb.rdMisses                    0                       # TLB misses on read requests
system.switch_cpus1.itb.wrAccesses                  0                       # TLB accesses on write requests
system.switch_cpus1.itb.wrMisses                    0                       # TLB misses on write requests
system.switch_cpus1.kern.inst.arm                   0                       # number of arm instructions executed
system.switch_cpus1.kern.inst.quiesce               0                       # number of quiesce instructions executed
system.switch_cpus1.not_idle_fraction               0                       # Percentage of non-idle cycles
system.switch_cpus1.numCycles                       0                       # number of cpu cycles simulated
system.switch_cpus1.numWorkItemsCompleted            0                       # number of work items this cpu completed
system.switch_cpus1.numWorkItemsStarted             0                       # number of work items this cpu started
system.switch_cpus1.num_busy_cycles                 0                       # Number of busy cycles
system.switch_cpus1.num_conditional_control_insts            0                       # number of instructions that are conditional controls
system.switch_cpus1.num_fp_alu_accesses             0                       # Number of float alu accesses
system.switch_cpus1.num_fp_insts                    0                       # number of float instructions
system.switch_cpus1.num_fp_register_reads            0                       # number of times the floating registers were read
system.switch_cpus1.num_fp_register_writes            0                       # number of times the floating registers were written
system.switch_cpus1.num_func_calls                  0                       # number of times a function call or return occured
system.switch_cpus1.num_idle_cycles                 0                       # Number of idle cycles
system.switch_cpus1.num_int_alu_accesses            0                       # Number of integer alu accesses
system.switch_cpus1.num_int_insts                   0                       # number of integer instructions
system.switch_cpus1.num_int_register_reads            0                       # number of times the integer registers were read
system.switch_cpus1.num_int_register_writes            0                       # number of times the integer registers were written
system.switch_cpus1.num_load_insts                  0                       # Number of load instructions
system.switch_cpus1.num_mem_refs                    0                       # number of memory refs
system.switch_cpus1.num_store_insts                 0                       # Number of store instructions
system.switch_cpus1.num_vec_alu_accesses            0                       # Number of vector alu accesses
system.switch_cpus1.num_vec_insts                   0                       # number of vector instructions
system.switch_cpus1.num_vec_register_reads            0                       # number of times the vector registers were read
system.switch_cpus1.num_vec_register_writes            0                       # number of times the vector registers were written
system.switch_cpus1.op_class::No_OpClass            0                       # Class of executed instruction
system.switch_cpus1.op_class::IntAlu                0                       # Class of executed instruction
system.switch_cpus1.op_class::IntMult               0                       # Class of executed instruction
system.switch_cpus1.op_class::IntDiv                0                       # Class of executed instruction
system.switch_cpus1.op_class::FloatAdd              0                       # Class of executed instruction
system.switch_cpus1.op_class::FloatCmp              0                       # Class of executed instruction
system.switch_cpus1.op_class::FloatCvt              0                       # Class of executed instruction
system.switch_cpus1.op_class::FloatMult             0                       # Class of executed instruction
system.switch_cpus1.op_class::FloatMultAcc            0                       # Class of executed instruction
system.switch_cpus1.op_class::FloatDiv              0                       # Class of executed instruction
system.switch_cpus1.op_class::FloatMisc             0                       # Class of executed instruction
system.switch_cpus1.op_class::FloatSqrt             0                       # Class of executed instruction
system.switch_cpus1.op_class::SimdAdd               0                       # Class of executed instruction
system.switch_cpus1.op_class::SimdAddAcc            0                       # Class of executed instruction
system.switch_cpus1.op_class::SimdAlu               0                       # Class of executed instruction
system.switch_cpus1.op_class::SimdCmp               0                       # Class of executed instruction
system.switch_cpus1.op_class::SimdCvt               0                       # Class of executed instruction
system.switch_cpus1.op_class::SimdMisc              0                       # Class of executed instruction
system.switch_cpus1.op_class::SimdMult              0                       # Class of executed instruction
system.switch_cpus1.op_class::SimdMultAcc            0                       # Class of executed instruction
system.switch_cpus1.op_class::SimdShift             0                       # Class of executed instruction
system.switch_cpus1.op_class::SimdShiftAcc            0                       # Class of executed instruction
system.switch_cpus1.op_class::SimdDiv               0                       # Class of executed instruction
system.switch_cpus1.op_class::SimdSqrt              0                       # Class of executed instruction
system.switch_cpus1.op_class::SimdFloatAdd            0                       # Class of executed instruction
system.switch_cpus1.op_class::SimdFloatAlu            0                       # Class of executed instruction
system.switch_cpus1.op_class::SimdFloatCmp            0                       # Class of executed instruction
system.switch_cpus1.op_class::SimdFloatCvt            0                       # Class of executed instruction
system.switch_cpus1.op_class::SimdFloatDiv            0                       # Class of executed instruction
system.switch_cpus1.op_class::SimdFloatMisc            0                       # Class of executed instruction
system.switch_cpus1.op_class::SimdFloatMult            0                       # Class of executed instruction
system.switch_cpus1.op_class::SimdFloatMultAcc            0                       # Class of executed instruction
system.switch_cpus1.op_class::SimdFloatSqrt            0                       # Class of executed instruction
system.switch_cpus1.op_class::SimdReduceAdd            0                       # Class of executed instruction
system.switch_cpus1.op_class::SimdReduceAlu            0                       # Class of executed instruction
system.switch_cpus1.op_class::SimdReduceCmp            0                       # Class of executed instruction
system.switch_cpus1.op_class::SimdFloatReduceAdd            0                       # Class of executed instruction
system.switch_cpus1.op_class::SimdFloatReduceCmp            0                       # Class of executed instruction
system.switch_cpus1.op_class::SimdAes               0                       # Class of executed instruction
system.switch_cpus1.op_class::SimdAesMix            0                       # Class of executed instruction
system.switch_cpus1.op_class::SimdSha1Hash            0                       # Class of executed instruction
system.switch_cpus1.op_class::SimdSha1Hash2            0                       # Class of executed instruction
system.switch_cpus1.op_class::SimdSha256Hash            0                       # Class of executed instruction
system.switch_cpus1.op_class::SimdSha256Hash2            0                       # Class of executed instruction
system.switch_cpus1.op_class::SimdShaSigma2            0                       # Class of executed instruction
system.switch_cpus1.op_class::SimdShaSigma3            0                       # Class of executed instruction
system.switch_cpus1.op_class::SimdPredAlu            0                       # Class of executed instruction
system.switch_cpus1.op_class::MemRead               0                       # Class of executed instruction
system.switch_cpus1.op_class::MemWrite              0                       # Class of executed instruction
system.switch_cpus1.op_class::FloatMemRead            0                       # Class of executed instruction
system.switch_cpus1.op_class::FloatMemWrite            0                       # Class of executed instruction
system.switch_cpus1.op_class::IprAccess             0                       # Class of executed instruction
system.switch_cpus1.op_class::InstPrefetch            0                       # Class of executed instruction
system.switch_cpus1.op_class::total                 0                       # Class of executed instruction
system.switch_cpus2.committedInsts                  0                       # Number of instructions committed
system.switch_cpus2.committedOps                    0                       # Number of ops (including micro ops) committed
system.switch_cpus2.dtb.rdAccesses                  0                       # TLB accesses on read requests
system.switch_cpus2.dtb.rdMisses                    0                       # TLB misses on read requests
system.switch_cpus2.dtb.wrAccesses                  0                       # TLB accesses on write requests
system.switch_cpus2.dtb.wrMisses                    0                       # TLB misses on write requests
system.switch_cpus2.idle_fraction                   1                       # Percentage of idle cycles
system.switch_cpus2.itb.rdAccesses                  0                       # TLB accesses on read requests
system.switch_cpus2.itb.rdMisses                    0                       # TLB misses on read requests
system.switch_cpus2.itb.wrAccesses                  0                       # TLB accesses on write requests
system.switch_cpus2.itb.wrMisses                    0                       # TLB misses on write requests
system.switch_cpus2.kern.inst.arm                   0                       # number of arm instructions executed
system.switch_cpus2.kern.inst.quiesce               0                       # number of quiesce instructions executed
system.switch_cpus2.not_idle_fraction               0                       # Percentage of non-idle cycles
system.switch_cpus2.numCycles                       0                       # number of cpu cycles simulated
system.switch_cpus2.numWorkItemsCompleted            0                       # number of work items this cpu completed
system.switch_cpus2.numWorkItemsStarted             0                       # number of work items this cpu started
system.switch_cpus2.num_busy_cycles                 0                       # Number of busy cycles
system.switch_cpus2.num_conditional_control_insts            0                       # number of instructions that are conditional controls
system.switch_cpus2.num_fp_alu_accesses             0                       # Number of float alu accesses
system.switch_cpus2.num_fp_insts                    0                       # number of float instructions
system.switch_cpus2.num_fp_register_reads            0                       # number of times the floating registers were read
system.switch_cpus2.num_fp_register_writes            0                       # number of times the floating registers were written
system.switch_cpus2.num_func_calls                  0                       # number of times a function call or return occured
system.switch_cpus2.num_idle_cycles                 0                       # Number of idle cycles
system.switch_cpus2.num_int_alu_accesses            0                       # Number of integer alu accesses
system.switch_cpus2.num_int_insts                   0                       # number of integer instructions
system.switch_cpus2.num_int_register_reads            0                       # number of times the integer registers were read
system.switch_cpus2.num_int_register_writes            0                       # number of times the integer registers were written
system.switch_cpus2.num_load_insts                  0                       # Number of load instructions
system.switch_cpus2.num_mem_refs                    0                       # number of memory refs
system.switch_cpus2.num_store_insts                 0                       # Number of store instructions
system.switch_cpus2.num_vec_alu_accesses            0                       # Number of vector alu accesses
system.switch_cpus2.num_vec_insts                   0                       # number of vector instructions
system.switch_cpus2.num_vec_register_reads            0                       # number of times the vector registers were read
system.switch_cpus2.num_vec_register_writes            0                       # number of times the vector registers were written
system.switch_cpus2.op_class::No_OpClass            0                       # Class of executed instruction
system.switch_cpus2.op_class::IntAlu                0                       # Class of executed instruction
system.switch_cpus2.op_class::IntMult               0                       # Class of executed instruction
system.switch_cpus2.op_class::IntDiv                0                       # Class of executed instruction
system.switch_cpus2.op_class::FloatAdd              0                       # Class of executed instruction
system.switch_cpus2.op_class::FloatCmp              0                       # Class of executed instruction
system.switch_cpus2.op_class::FloatCvt              0                       # Class of executed instruction
system.switch_cpus2.op_class::FloatMult             0                       # Class of executed instruction
system.switch_cpus2.op_class::FloatMultAcc            0                       # Class of executed instruction
system.switch_cpus2.op_class::FloatDiv              0                       # Class of executed instruction
system.switch_cpus2.op_class::FloatMisc             0                       # Class of executed instruction
system.switch_cpus2.op_class::FloatSqrt             0                       # Class of executed instruction
system.switch_cpus2.op_class::SimdAdd               0                       # Class of executed instruction
system.switch_cpus2.op_class::SimdAddAcc            0                       # Class of executed instruction
system.switch_cpus2.op_class::SimdAlu               0                       # Class of executed instruction
system.switch_cpus2.op_class::SimdCmp               0                       # Class of executed instruction
system.switch_cpus2.op_class::SimdCvt               0                       # Class of executed instruction
system.switch_cpus2.op_class::SimdMisc              0                       # Class of executed instruction
system.switch_cpus2.op_class::SimdMult              0                       # Class of executed instruction
system.switch_cpus2.op_class::SimdMultAcc            0                       # Class of executed instruction
system.switch_cpus2.op_class::SimdShift             0                       # Class of executed instruction
system.switch_cpus2.op_class::SimdShiftAcc            0                       # Class of executed instruction
system.switch_cpus2.op_class::SimdDiv               0                       # Class of executed instruction
system.switch_cpus2.op_class::SimdSqrt              0                       # Class of executed instruction
system.switch_cpus2.op_class::SimdFloatAdd            0                       # Class of executed instruction
system.switch_cpus2.op_class::SimdFloatAlu            0                       # Class of executed instruction
system.switch_cpus2.op_class::SimdFloatCmp            0                       # Class of executed instruction
system.switch_cpus2.op_class::SimdFloatCvt            0                       # Class of executed instruction
system.switch_cpus2.op_class::SimdFloatDiv            0                       # Class of executed instruction
system.switch_cpus2.op_class::SimdFloatMisc            0                       # Class of executed instruction
system.switch_cpus2.op_class::SimdFloatMult            0                       # Class of executed instruction
system.switch_cpus2.op_class::SimdFloatMultAcc            0                       # Class of executed instruction
system.switch_cpus2.op_class::SimdFloatSqrt            0                       # Class of executed instruction
system.switch_cpus2.op_class::SimdReduceAdd            0                       # Class of executed instruction
system.switch_cpus2.op_class::SimdReduceAlu            0                       # Class of executed instruction
system.switch_cpus2.op_class::SimdReduceCmp            0                       # Class of executed instruction
system.switch_cpus2.op_class::SimdFloatReduceAdd            0                       # Class of executed instruction
system.switch_cpus2.op_class::SimdFloatReduceCmp            0                       # Class of executed instruction
system.switch_cpus2.op_class::SimdAes               0                       # Class of executed instruction
system.switch_cpus2.op_class::SimdAesMix            0                       # Class of executed instruction
system.switch_cpus2.op_class::SimdSha1Hash            0                       # Class of executed instruction
system.switch_cpus2.op_class::SimdSha1Hash2            0                       # Class of executed instruction
system.switch_cpus2.op_class::SimdSha256Hash            0                       # Class of executed instruction
system.switch_cpus2.op_class::SimdSha256Hash2            0                       # Class of executed instruction
system.switch_cpus2.op_class::SimdShaSigma2            0                       # Class of executed instruction
system.switch_cpus2.op_class::SimdShaSigma3            0                       # Class of executed instruction
system.switch_cpus2.op_class::SimdPredAlu            0                       # Class of executed instruction
system.switch_cpus2.op_class::MemRead               0                       # Class of executed instruction
system.switch_cpus2.op_class::MemWrite              0                       # Class of executed instruction
system.switch_cpus2.op_class::FloatMemRead            0                       # Class of executed instruction
system.switch_cpus2.op_class::FloatMemWrite            0                       # Class of executed instruction
system.switch_cpus2.op_class::IprAccess             0                       # Class of executed instruction
system.switch_cpus2.op_class::InstPrefetch            0                       # Class of executed instruction
system.switch_cpus2.op_class::total                 0                       # Class of executed instruction
system.switch_cpus3.committedInsts                  0                       # Number of instructions committed
system.switch_cpus3.committedOps                    0                       # Number of ops (including micro ops) committed
system.switch_cpus3.dtb.rdAccesses                  0                       # TLB accesses on read requests
system.switch_cpus3.dtb.rdMisses                    0                       # TLB misses on read requests
system.switch_cpus3.dtb.wrAccesses                  0                       # TLB accesses on write requests
system.switch_cpus3.dtb.wrMisses                    0                       # TLB misses on write requests
system.switch_cpus3.idle_fraction                   1                       # Percentage of idle cycles
system.switch_cpus3.itb.rdAccesses                  0                       # TLB accesses on read requests
system.switch_cpus3.itb.rdMisses                    0                       # TLB misses on read requests
system.switch_cpus3.itb.wrAccesses                  0                       # TLB accesses on write requests
system.switch_cpus3.itb.wrMisses                    0                       # TLB misses on write requests
system.switch_cpus3.kern.inst.arm                   0                       # number of arm instructions executed
system.switch_cpus3.kern.inst.quiesce               0                       # number of quiesce instructions executed
system.switch_cpus3.not_idle_fraction               0                       # Percentage of non-idle cycles
system.switch_cpus3.numCycles                       0                       # number of cpu cycles simulated
system.switch_cpus3.numWorkItemsCompleted            0                       # number of work items this cpu completed
system.switch_cpus3.numWorkItemsStarted             0                       # number of work items this cpu started
system.switch_cpus3.num_busy_cycles                 0                       # Number of busy cycles
system.switch_cpus3.num_conditional_control_insts            0                       # number of instructions that are conditional controls
system.switch_cpus3.num_fp_alu_accesses             0                       # Number of float alu accesses
system.switch_cpus3.num_fp_insts                    0                       # number of float instructions
system.switch_cpus3.num_fp_register_reads            0                       # number of times the floating registers were read
system.switch_cpus3.num_fp_register_writes            0                       # number of times the floating registers were written
system.switch_cpus3.num_func_calls                  0                       # number of times a function call or return occured
system.switch_cpus3.num_idle_cycles                 0                       # Number of idle cycles
system.switch_cpus3.num_int_alu_accesses            0                       # Number of integer alu accesses
system.switch_cpus3.num_int_insts                   0                       # number of integer instructions
system.switch_cpus3.num_int_register_reads            0                       # number of times the integer registers were read
system.switch_cpus3.num_int_register_writes            0                       # number of times the integer registers were written
system.switch_cpus3.num_load_insts                  0                       # Number of load instructions
system.switch_cpus3.num_mem_refs                    0                       # number of memory refs
system.switch_cpus3.num_store_insts                 0                       # Number of store instructions
system.switch_cpus3.num_vec_alu_accesses            0                       # Number of vector alu accesses
system.switch_cpus3.num_vec_insts                   0                       # number of vector instructions
system.switch_cpus3.num_vec_register_reads            0                       # number of times the vector registers were read
system.switch_cpus3.num_vec_register_writes            0                       # number of times the vector registers were written
system.switch_cpus3.op_class::No_OpClass            0                       # Class of executed instruction
system.switch_cpus3.op_class::IntAlu                0                       # Class of executed instruction
system.switch_cpus3.op_class::IntMult               0                       # Class of executed instruction
system.switch_cpus3.op_class::IntDiv                0                       # Class of executed instruction
system.switch_cpus3.op_class::FloatAdd              0                       # Class of executed instruction
system.switch_cpus3.op_class::FloatCmp              0                       # Class of executed instruction
system.switch_cpus3.op_class::FloatCvt              0                       # Class of executed instruction
system.switch_cpus3.op_class::FloatMult             0                       # Class of executed instruction
system.switch_cpus3.op_class::FloatMultAcc            0                       # Class of executed instruction
system.switch_cpus3.op_class::FloatDiv              0                       # Class of executed instruction
system.switch_cpus3.op_class::FloatMisc             0                       # Class of executed instruction
system.switch_cpus3.op_class::FloatSqrt             0                       # Class of executed instruction
system.switch_cpus3.op_class::SimdAdd               0                       # Class of executed instruction
system.switch_cpus3.op_class::SimdAddAcc            0                       # Class of executed instruction
system.switch_cpus3.op_class::SimdAlu               0                       # Class of executed instruction
system.switch_cpus3.op_class::SimdCmp               0                       # Class of executed instruction
system.switch_cpus3.op_class::SimdCvt               0                       # Class of executed instruction
system.switch_cpus3.op_class::SimdMisc              0                       # Class of executed instruction
system.switch_cpus3.op_class::SimdMult              0                       # Class of executed instruction
system.switch_cpus3.op_class::SimdMultAcc            0                       # Class of executed instruction
system.switch_cpus3.op_class::SimdShift             0                       # Class of executed instruction
system.switch_cpus3.op_class::SimdShiftAcc            0                       # Class of executed instruction
system.switch_cpus3.op_class::SimdDiv               0                       # Class of executed instruction
system.switch_cpus3.op_class::SimdSqrt              0                       # Class of executed instruction
system.switch_cpus3.op_class::SimdFloatAdd            0                       # Class of executed instruction
system.switch_cpus3.op_class::SimdFloatAlu            0                       # Class of executed instruction
system.switch_cpus3.op_class::SimdFloatCmp            0                       # Class of executed instruction
system.switch_cpus3.op_class::SimdFloatCvt            0                       # Class of executed instruction
system.switch_cpus3.op_class::SimdFloatDiv            0                       # Class of executed instruction
system.switch_cpus3.op_class::SimdFloatMisc            0                       # Class of executed instruction
system.switch_cpus3.op_class::SimdFloatMult            0                       # Class of executed instruction
system.switch_cpus3.op_class::SimdFloatMultAcc            0                       # Class of executed instruction
system.switch_cpus3.op_class::SimdFloatSqrt            0                       # Class of executed instruction
system.switch_cpus3.op_class::SimdReduceAdd            0                       # Class of executed instruction
system.switch_cpus3.op_class::SimdReduceAlu            0                       # Class of executed instruction
system.switch_cpus3.op_class::SimdReduceCmp            0                       # Class of executed instruction
system.switch_cpus3.op_class::SimdFloatReduceAdd            0                       # Class of executed instruction
system.switch_cpus3.op_class::SimdFloatReduceCmp            0                       # Class of executed instruction
system.switch_cpus3.op_class::SimdAes               0                       # Class of executed instruction
system.switch_cpus3.op_class::SimdAesMix            0                       # Class of executed instruction
system.switch_cpus3.op_class::SimdSha1Hash            0                       # Class of executed instruction
system.switch_cpus3.op_class::SimdSha1Hash2            0                       # Class of executed instruction
system.switch_cpus3.op_class::SimdSha256Hash            0                       # Class of executed instruction
system.switch_cpus3.op_class::SimdSha256Hash2            0                       # Class of executed instruction
system.switch_cpus3.op_class::SimdShaSigma2            0                       # Class of executed instruction
system.switch_cpus3.op_class::SimdShaSigma3            0                       # Class of executed instruction
system.switch_cpus3.op_class::SimdPredAlu            0                       # Class of executed instruction
system.switch_cpus3.op_class::MemRead               0                       # Class of executed instruction
system.switch_cpus3.op_class::MemWrite              0                       # Class of executed instruction
system.switch_cpus3.op_class::FloatMemRead            0                       # Class of executed instruction
system.switch_cpus3.op_class::FloatMemWrite            0                       # Class of executed instruction
system.switch_cpus3.op_class::IprAccess             0                       # Class of executed instruction
system.switch_cpus3.op_class::InstPrefetch            0                       # Class of executed instruction
system.switch_cpus3.op_class::total                 0                       # Class of executed instruction
system.cpu_clk_domain.clock                       500                       # Clock period in ticks
system.voltage_domain.voltage                       1                       # Voltage in Volts
system.clk_domain.clock                          1000                       # Clock period in ticks
system.pc.fake_com_4.power_state.pwrStateResidencyTicks::UNDEFINED 47513637752359000                       # Cumulative time (in ticks) in various power states
system.pc.fake_com_2.power_state.pwrStateResidencyTicks::UNDEFINED 47513637752359000                       # Cumulative time (in ticks) in various power states
system.pc.fake_com_3.power_state.pwrStateResidencyTicks::UNDEFINED 47513637752359000                       # Cumulative time (in ticks) in various power states
system.pc.south_bridge.io_apic.power_state.pwrStateResidencyTicks::UNDEFINED 47513637752359000                       # Cumulative time (in ticks) in various power states
system.pc.south_bridge.pic1.power_state.pwrStateResidencyTicks::UNDEFINED 47513637752359000                       # Cumulative time (in ticks) in various power states
system.pc.south_bridge.pic2.power_state.pwrStateResidencyTicks::UNDEFINED 47513637752359000                       # Cumulative time (in ticks) in various power states
system.pc.south_bridge.dma1.power_state.pwrStateResidencyTicks::UNDEFINED 47513637752359000                       # Cumulative time (in ticks) in various power states
system.pc.south_bridge.speaker.power_state.pwrStateResidencyTicks::UNDEFINED 47513637752359000                       # Cumulative time (in ticks) in various power states
system.pc.south_bridge.keyboard.power_state.pwrStateResidencyTicks::UNDEFINED 47513637752359000                       # Cumulative time (in ticks) in various power states
system.pc.south_bridge.ide.power_state.pwrStateResidencyTicks::UNDEFINED 47513637752359000                       # Cumulative time (in ticks) in various power states
system.pc.south_bridge.pit.power_state.pwrStateResidencyTicks::UNDEFINED 47513637752359000                       # Cumulative time (in ticks) in various power states
system.pc.south_bridge.cmos.power_state.pwrStateResidencyTicks::UNDEFINED 47513637752359000                       # Cumulative time (in ticks) in various power states
system.pc.i_dont_exist2.power_state.pwrStateResidencyTicks::UNDEFINED 47513637752359000                       # Cumulative time (in ticks) in various power states
system.pc.i_dont_exist1.power_state.pwrStateResidencyTicks::UNDEFINED 47513637752359000                       # Cumulative time (in ticks) in various power states
system.pc.com_1.power_state.pwrStateResidencyTicks::UNDEFINED 47513637752359000                       # Cumulative time (in ticks) in various power states
system.pc.fake_floppy.power_state.pwrStateResidencyTicks::UNDEFINED 47513637752359000                       # Cumulative time (in ticks) in various power states
system.pc.behind_pci.power_state.pwrStateResidencyTicks::UNDEFINED 47513637752359000                       # Cumulative time (in ticks) in various power states
system.pc.pci_host.power_state.pwrStateResidencyTicks::UNDEFINED 47513637752359000                       # Cumulative time (in ticks) in various power states
system.switch_cpus2.dtb.walker.power_state.pwrStateResidencyTicks::UNDEFINED 47513637752359000                       # Cumulative time (in ticks) in various power states
system.switch_cpus2.itb.walker.power_state.pwrStateResidencyTicks::UNDEFINED 47513637752359000                       # Cumulative time (in ticks) in various power states
system.switch_cpus2.power_state.numTransitions            1                       # Number of power state transitions
system.switch_cpus2.power_state.pwrStateResidencyTicks::OFF 47513637752359000                       # Cumulative time (in ticks) in various power states
system.switch_cpus3.dtb.walker.power_state.pwrStateResidencyTicks::UNDEFINED 47513637752359000                       # Cumulative time (in ticks) in various power states
system.switch_cpus3.itb.walker.power_state.pwrStateResidencyTicks::UNDEFINED 47513637752359000                       # Cumulative time (in ticks) in various power states
system.switch_cpus3.power_state.numTransitions            1                       # Number of power state transitions
system.switch_cpus3.power_state.pwrStateResidencyTicks::OFF 47513637752359000                       # Cumulative time (in ticks) in various power states
system.switch_cpus0.dtb.walker.power_state.pwrStateResidencyTicks::UNDEFINED 47513637752359000                       # Cumulative time (in ticks) in various power states
system.switch_cpus0.itb.walker.power_state.pwrStateResidencyTicks::UNDEFINED 47513637752359000                       # Cumulative time (in ticks) in various power states
system.switch_cpus0.power_state.numTransitions            1                       # Number of power state transitions
system.switch_cpus0.power_state.pwrStateResidencyTicks::OFF 47513637752359000                       # Cumulative time (in ticks) in various power states
system.switch_cpus1.dtb.walker.power_state.pwrStateResidencyTicks::UNDEFINED 47513637752359000                       # Cumulative time (in ticks) in various power states
system.switch_cpus1.itb.walker.power_state.pwrStateResidencyTicks::UNDEFINED 47513637752359000                       # Cumulative time (in ticks) in various power states
system.switch_cpus1.power_state.numTransitions            1                       # Number of power state transitions
system.switch_cpus1.power_state.pwrStateResidencyTicks::OFF 47513637752359000                       # Cumulative time (in ticks) in various power states
system.sys_port_proxy.power_state.pwrStateResidencyTicks::UNDEFINED 47513637752359000                       # Cumulative time (in ticks) in various power states
system.cpu2.dtb.walker.power_state.pwrStateResidencyTicks::UNDEFINED 47513637752359000                       # Cumulative time (in ticks) in various power states
system.cpu2.interrupts.clk_domain.clock          8000                       # Clock period in ticks
system.cpu2.itb.walker.power_state.pwrStateResidencyTicks::UNDEFINED 47513637752359000                       # Cumulative time (in ticks) in various power states
system.cpu2.power_state.pwrStateResidencyTicks::ON 47513637752359000                       # Cumulative time (in ticks) in various power states
system.cpu3.dtb.walker.power_state.pwrStateResidencyTicks::UNDEFINED 47513637752359000                       # Cumulative time (in ticks) in various power states
system.cpu3.interrupts.clk_domain.clock          8000                       # Clock period in ticks
system.cpu3.itb.walker.power_state.pwrStateResidencyTicks::UNDEFINED 47513637752359000                       # Cumulative time (in ticks) in various power states
system.cpu3.power_state.pwrStateResidencyTicks::ON 47513637752359000                       # Cumulative time (in ticks) in various power states
system.cpu0.dtb.walker.power_state.pwrStateResidencyTicks::UNDEFINED 47513637752359000                       # Cumulative time (in ticks) in various power states
system.cpu0.interrupts.clk_domain.clock          8000                       # Clock period in ticks
system.cpu0.itb.walker.power_state.pwrStateResidencyTicks::UNDEFINED 47513637752359000                       # Cumulative time (in ticks) in various power states
system.cpu0.power_state.pwrStateResidencyTicks::ON 47513637752359000                       # Cumulative time (in ticks) in various power states
system.cpu1.dtb.walker.power_state.pwrStateResidencyTicks::UNDEFINED 47513637752359000                       # Cumulative time (in ticks) in various power states
system.cpu1.interrupts.clk_domain.clock          8000                       # Clock period in ticks
system.cpu1.itb.walker.power_state.pwrStateResidencyTicks::UNDEFINED 47513637752359000                       # Cumulative time (in ticks) in various power states
system.cpu1.power_state.pwrStateResidencyTicks::ON 47513637752359000                       # Cumulative time (in ticks) in various power states
system.ruby.l1_cntrl0.sequencer.power_state.pwrStateResidencyTicks::UNDEFINED 47513637752359000                       # Cumulative time (in ticks) in various power states
system.ruby.l1_cntrl0.power_state.pwrStateResidencyTicks::UNDEFINED 47513637752359000                       # Cumulative time (in ticks) in various power states
system.ruby.l1_cntrl1.sequencer.power_state.pwrStateResidencyTicks::UNDEFINED 47513637752359000                       # Cumulative time (in ticks) in various power states
system.ruby.l1_cntrl1.power_state.pwrStateResidencyTicks::UNDEFINED 47513637752359000                       # Cumulative time (in ticks) in various power states
system.ruby.l1_cntrl2.sequencer.power_state.pwrStateResidencyTicks::UNDEFINED 47513637752359000                       # Cumulative time (in ticks) in various power states
system.ruby.l1_cntrl2.power_state.pwrStateResidencyTicks::UNDEFINED 47513637752359000                       # Cumulative time (in ticks) in various power states
system.ruby.l1_cntrl3.sequencer.power_state.pwrStateResidencyTicks::UNDEFINED 47513637752359000                       # Cumulative time (in ticks) in various power states
system.ruby.l1_cntrl3.power_state.pwrStateResidencyTicks::UNDEFINED 47513637752359000                       # Cumulative time (in ticks) in various power states
system.ruby.clk_domain.clock                      500                       # Clock period in ticks
system.ruby.dma_cntrl0.dma_sequencer.power_state.pwrStateResidencyTicks::UNDEFINED 47513637752359000                       # Cumulative time (in ticks) in various power states
system.ruby.dma_cntrl0.power_state.pwrStateResidencyTicks::UNDEFINED 47513637752359000                       # Cumulative time (in ticks) in various power states
system.ruby.network.netifs8.power_state.pwrStateResidencyTicks::UNDEFINED 47513637752359000                       # Cumulative time (in ticks) in various power states
system.ruby.network.netifs9.power_state.pwrStateResidencyTicks::UNDEFINED 47513637752359000                       # Cumulative time (in ticks) in various power states
system.ruby.network.netifs6.power_state.pwrStateResidencyTicks::UNDEFINED 47513637752359000                       # Cumulative time (in ticks) in various power states
system.ruby.network.netifs7.power_state.pwrStateResidencyTicks::UNDEFINED 47513637752359000                       # Cumulative time (in ticks) in various power states
system.ruby.network.netifs4.power_state.pwrStateResidencyTicks::UNDEFINED 47513637752359000                       # Cumulative time (in ticks) in various power states
system.ruby.network.netifs5.power_state.pwrStateResidencyTicks::UNDEFINED 47513637752359000                       # Cumulative time (in ticks) in various power states
system.ruby.network.netifs2.power_state.pwrStateResidencyTicks::UNDEFINED 47513637752359000                       # Cumulative time (in ticks) in various power states
system.ruby.network.netifs3.power_state.pwrStateResidencyTicks::UNDEFINED 47513637752359000                       # Cumulative time (in ticks) in various power states
system.ruby.network.netifs0.power_state.pwrStateResidencyTicks::UNDEFINED 47513637752359000                       # Cumulative time (in ticks) in various power states
system.ruby.network.netifs1.power_state.pwrStateResidencyTicks::UNDEFINED 47513637752359000                       # Cumulative time (in ticks) in various power states
system.ruby.network.power_state.pwrStateResidencyTicks::UNDEFINED 47513637752359000                       # Cumulative time (in ticks) in various power states
system.ruby.network.int_links1.credit_link.power_state.pwrStateResidencyTicks::UNDEFINED 47513637752359000                       # Cumulative time (in ticks) in various power states
system.ruby.network.int_links1.network_link.power_state.pwrStateResidencyTicks::UNDEFINED 47513637752359000                       # Cumulative time (in ticks) in various power states
system.ruby.network.int_links0.credit_link.power_state.pwrStateResidencyTicks::UNDEFINED 47513637752359000                       # Cumulative time (in ticks) in various power states
system.ruby.network.int_links0.network_link.power_state.pwrStateResidencyTicks::UNDEFINED 47513637752359000                       # Cumulative time (in ticks) in various power states
system.ruby.network.int_links3.credit_link.power_state.pwrStateResidencyTicks::UNDEFINED 47513637752359000                       # Cumulative time (in ticks) in various power states
system.ruby.network.int_links3.network_link.power_state.pwrStateResidencyTicks::UNDEFINED 47513637752359000                       # Cumulative time (in ticks) in various power states
system.ruby.network.int_links2.credit_link.power_state.pwrStateResidencyTicks::UNDEFINED 47513637752359000                       # Cumulative time (in ticks) in various power states
system.ruby.network.int_links2.network_link.power_state.pwrStateResidencyTicks::UNDEFINED 47513637752359000                       # Cumulative time (in ticks) in various power states
system.ruby.network.int_links5.credit_link.power_state.pwrStateResidencyTicks::UNDEFINED 47513637752359000                       # Cumulative time (in ticks) in various power states
system.ruby.network.int_links5.network_link.power_state.pwrStateResidencyTicks::UNDEFINED 47513637752359000                       # Cumulative time (in ticks) in various power states
system.ruby.network.int_links4.credit_link.power_state.pwrStateResidencyTicks::UNDEFINED 47513637752359000                       # Cumulative time (in ticks) in various power states
system.ruby.network.int_links4.network_link.power_state.pwrStateResidencyTicks::UNDEFINED 47513637752359000                       # Cumulative time (in ticks) in various power states
system.ruby.network.int_links7.credit_link.power_state.pwrStateResidencyTicks::UNDEFINED 47513637752359000                       # Cumulative time (in ticks) in various power states
system.ruby.network.int_links7.network_link.power_state.pwrStateResidencyTicks::UNDEFINED 47513637752359000                       # Cumulative time (in ticks) in various power states
system.ruby.network.int_links6.credit_link.power_state.pwrStateResidencyTicks::UNDEFINED 47513637752359000                       # Cumulative time (in ticks) in various power states
system.ruby.network.int_links6.network_link.power_state.pwrStateResidencyTicks::UNDEFINED 47513637752359000                       # Cumulative time (in ticks) in various power states
system.ruby.network.ext_links9.credit_links0.power_state.pwrStateResidencyTicks::UNDEFINED 47513637752359000                       # Cumulative time (in ticks) in various power states
system.ruby.network.ext_links9.credit_links1.power_state.pwrStateResidencyTicks::UNDEFINED 47513637752359000                       # Cumulative time (in ticks) in various power states
system.ruby.network.ext_links9.network_links1.power_state.pwrStateResidencyTicks::UNDEFINED 47513637752359000                       # Cumulative time (in ticks) in various power states
system.ruby.network.ext_links9.network_links0.power_state.pwrStateResidencyTicks::UNDEFINED 47513637752359000                       # Cumulative time (in ticks) in various power states
system.ruby.network.ext_links8.credit_links0.power_state.pwrStateResidencyTicks::UNDEFINED 47513637752359000                       # Cumulative time (in ticks) in various power states
system.ruby.network.ext_links8.credit_links1.power_state.pwrStateResidencyTicks::UNDEFINED 47513637752359000                       # Cumulative time (in ticks) in various power states
system.ruby.network.ext_links8.network_links1.power_state.pwrStateResidencyTicks::UNDEFINED 47513637752359000                       # Cumulative time (in ticks) in various power states
system.ruby.network.ext_links8.network_links0.power_state.pwrStateResidencyTicks::UNDEFINED 47513637752359000                       # Cumulative time (in ticks) in various power states
system.ruby.network.ext_links7.credit_links0.power_state.pwrStateResidencyTicks::UNDEFINED 47513637752359000                       # Cumulative time (in ticks) in various power states
system.ruby.network.ext_links7.credit_links1.power_state.pwrStateResidencyTicks::UNDEFINED 47513637752359000                       # Cumulative time (in ticks) in various power states
system.ruby.network.ext_links7.network_links1.power_state.pwrStateResidencyTicks::UNDEFINED 47513637752359000                       # Cumulative time (in ticks) in various power states
system.ruby.network.ext_links7.network_links0.power_state.pwrStateResidencyTicks::UNDEFINED 47513637752359000                       # Cumulative time (in ticks) in various power states
system.ruby.network.ext_links6.credit_links0.power_state.pwrStateResidencyTicks::UNDEFINED 47513637752359000                       # Cumulative time (in ticks) in various power states
system.ruby.network.ext_links6.credit_links1.power_state.pwrStateResidencyTicks::UNDEFINED 47513637752359000                       # Cumulative time (in ticks) in various power states
system.ruby.network.ext_links6.network_links1.power_state.pwrStateResidencyTicks::UNDEFINED 47513637752359000                       # Cumulative time (in ticks) in various power states
system.ruby.network.ext_links6.network_links0.power_state.pwrStateResidencyTicks::UNDEFINED 47513637752359000                       # Cumulative time (in ticks) in various power states
system.ruby.network.ext_links5.credit_links0.power_state.pwrStateResidencyTicks::UNDEFINED 47513637752359000                       # Cumulative time (in ticks) in various power states
system.ruby.network.ext_links5.credit_links1.power_state.pwrStateResidencyTicks::UNDEFINED 47513637752359000                       # Cumulative time (in ticks) in various power states
system.ruby.network.ext_links5.network_links1.power_state.pwrStateResidencyTicks::UNDEFINED 47513637752359000                       # Cumulative time (in ticks) in various power states
system.ruby.network.ext_links5.network_links0.power_state.pwrStateResidencyTicks::UNDEFINED 47513637752359000                       # Cumulative time (in ticks) in various power states
system.ruby.network.ext_links4.credit_links0.power_state.pwrStateResidencyTicks::UNDEFINED 47513637752359000                       # Cumulative time (in ticks) in various power states
system.ruby.network.ext_links4.credit_links1.power_state.pwrStateResidencyTicks::UNDEFINED 47513637752359000                       # Cumulative time (in ticks) in various power states
system.ruby.network.ext_links4.network_links1.power_state.pwrStateResidencyTicks::UNDEFINED 47513637752359000                       # Cumulative time (in ticks) in various power states
system.ruby.network.ext_links4.network_links0.power_state.pwrStateResidencyTicks::UNDEFINED 47513637752359000                       # Cumulative time (in ticks) in various power states
system.ruby.network.ext_links3.credit_links0.power_state.pwrStateResidencyTicks::UNDEFINED 47513637752359000                       # Cumulative time (in ticks) in various power states
system.ruby.network.ext_links3.credit_links1.power_state.pwrStateResidencyTicks::UNDEFINED 47513637752359000                       # Cumulative time (in ticks) in various power states
system.ruby.network.ext_links3.network_links1.power_state.pwrStateResidencyTicks::UNDEFINED 47513637752359000                       # Cumulative time (in ticks) in various power states
system.ruby.network.ext_links3.network_links0.power_state.pwrStateResidencyTicks::UNDEFINED 47513637752359000                       # Cumulative time (in ticks) in various power states
system.ruby.network.ext_links2.credit_links0.power_state.pwrStateResidencyTicks::UNDEFINED 47513637752359000                       # Cumulative time (in ticks) in various power states
system.ruby.network.ext_links2.credit_links1.power_state.pwrStateResidencyTicks::UNDEFINED 47513637752359000                       # Cumulative time (in ticks) in various power states
system.ruby.network.ext_links2.network_links1.power_state.pwrStateResidencyTicks::UNDEFINED 47513637752359000                       # Cumulative time (in ticks) in various power states
system.ruby.network.ext_links2.network_links0.power_state.pwrStateResidencyTicks::UNDEFINED 47513637752359000                       # Cumulative time (in ticks) in various power states
system.ruby.network.ext_links1.credit_links0.power_state.pwrStateResidencyTicks::UNDEFINED 47513637752359000                       # Cumulative time (in ticks) in various power states
system.ruby.network.ext_links1.credit_links1.power_state.pwrStateResidencyTicks::UNDEFINED 47513637752359000                       # Cumulative time (in ticks) in various power states
system.ruby.network.ext_links1.network_links1.power_state.pwrStateResidencyTicks::UNDEFINED 47513637752359000                       # Cumulative time (in ticks) in various power states
system.ruby.network.ext_links1.network_links0.power_state.pwrStateResidencyTicks::UNDEFINED 47513637752359000                       # Cumulative time (in ticks) in various power states
system.ruby.network.ext_links0.credit_links0.power_state.pwrStateResidencyTicks::UNDEFINED 47513637752359000                       # Cumulative time (in ticks) in various power states
system.ruby.network.ext_links0.credit_links1.power_state.pwrStateResidencyTicks::UNDEFINED 47513637752359000                       # Cumulative time (in ticks) in various power states
system.ruby.network.ext_links0.network_links1.power_state.pwrStateResidencyTicks::UNDEFINED 47513637752359000                       # Cumulative time (in ticks) in various power states
system.ruby.network.ext_links0.network_links0.power_state.pwrStateResidencyTicks::UNDEFINED 47513637752359000                       # Cumulative time (in ticks) in various power states
system.ruby.network.routers2.power_state.pwrStateResidencyTicks::UNDEFINED 47513637752359000                       # Cumulative time (in ticks) in various power states
system.ruby.network.routers3.power_state.pwrStateResidencyTicks::UNDEFINED 47513637752359000                       # Cumulative time (in ticks) in various power states
system.ruby.network.routers0.power_state.pwrStateResidencyTicks::UNDEFINED 47513637752359000                       # Cumulative time (in ticks) in various power states
system.ruby.network.routers1.power_state.pwrStateResidencyTicks::UNDEFINED 47513637752359000                       # Cumulative time (in ticks) in various power states
system.ruby.io_controller.dma_sequencer.power_state.pwrStateResidencyTicks::UNDEFINED 47513637752359000                       # Cumulative time (in ticks) in various power states
system.ruby.io_controller.power_state.pwrStateResidencyTicks::UNDEFINED 47513637752359000                       # Cumulative time (in ticks) in various power states
system.ruby.power_state.pwrStateResidencyTicks::UNDEFINED 47513637752359000                       # Cumulative time (in ticks) in various power states
system.ruby.memctrl_clk_domain.clock             1500                       # Clock period in ticks
[...]
system.mem_ctrls1.masterWriteBytes::.ruby.dir_cntrl1     11359424                       # Per-master bytes write to memory
system.mem_ctrls1.masterReadRate::.ruby.dir_cntrl1 252136285.281087219715                       # Per-master bytes read from memory rate (Bytes/sec)
system.mem_ctrls1.masterWriteRate::.ruby.dir_cntrl1 16266014.579838877544                       # Per-master bytes write to memory rate (Bytes/sec)
system.mem_ctrls1.masterReadAccesses::.ruby.dir_cntrl1      2810917                       # Per-master read serviced memory accesses
system.mem_ctrls1.masterWriteAccesses::.ruby.dir_cntrl1       185065                       # Per-master write serviced memory accesses
system.mem_ctrls1.masterReadTotalLat::.ruby.dir_cntrl1  81581816789                       # Per-master read total memory access latency
system.mem_ctrls1.masterWriteTotalLat::.ruby.dir_cntrl1 16680975457778                       # Per-master write total memory access latency
system.mem_ctrls1.masterReadAvgLat::.ruby.dir_cntrl1     29023.20                       # Per-master read average memory access latency
system.mem_ctrls1.masterWriteAvgLat::.ruby.dir_cntrl1  90135765.58                       # Per-master write average memory access latency
system.mem_ctrls1.pageHitRate                   65.26                       # Row buffer hit rate, read and write combined
system.mem_ctrls1.rank1.actEnergy          3377983980                       # Energy for activate commands per rank (pJ)
system.mem_ctrls1.rank1.preEnergy          1795437270                       # Energy for precharge commands per rank (pJ)
system.mem_ctrls1.rank1.readEnergy        10553091360                       # Energy for read commands per rank (pJ)
system.mem_ctrls1.rank1.writeEnergy         226615860                       # Energy for write commands per rank (pJ)
system.mem_ctrls1.rank1.refreshEnergy    55127061600.000008                       # Energy for refresh commands per rank (pJ)
system.mem_ctrls1.rank1.actBackEnergy    245768247480                       # Energy for active background per rank (pJ)
system.mem_ctrls1.rank1.preBackEnergy     61204812000                       # Energy for precharge background per rank (pJ)
system.mem_ctrls1.rank1.actPowerDownEnergy            0                       # Energy for active power-down per rank (pJ)
system.mem_ctrls1.rank1.prePowerDownEnergy            0                       # Energy for precharge power-down per rank (pJ)
system.mem_ctrls1.rank1.selfRefreshEnergy            0                       # Energy for self refresh per rank (pJ)
system.mem_ctrls1.rank1.totalEnergy      378053249550                       # Total energy per rank (pJ)
system.mem_ctrls1.rank1.averagePower       541.349603                       # Core power per rank (mW)
system.mem_ctrls1.rank1.totalIdleTime               0                       # Total Idle time Per DRAM Rank
system.mem_ctrls1.rank1.memoryStateTime::IDLE 156898584402                       # Time in different power states
system.mem_ctrls1.rank1.memoryStateTime::REF  23319400000                       # Time in different power states
system.mem_ctrls1.rank1.memoryStateTime::SREF            0                       # Time in different power states
system.mem_ctrls1.rank1.memoryStateTime::PRE_PDN            0                       # Time in different power states
system.mem_ctrls1.rank1.memoryStateTime::ACT 518135256599                       # Time in different power states
system.mem_ctrls1.rank1.memoryStateTime::ACT_PDN            0                       # Time in different power states
system.mem_ctrls1.rank0.actEnergy          3885616560                       # Energy for activate commands per rank (pJ)
system.mem_ctrls1.rank0.preEnergy          2065239000                       # Energy for precharge commands per rank (pJ)
system.mem_ctrls1.rank0.readEnergy         9090855060                       # Energy for read commands per rank (pJ)
system.mem_ctrls1.rank0.writeEnergy         699887160                       # Energy for write commands per rank (pJ)
system.mem_ctrls1.rank0.refreshEnergy    55127061600.000008                       # Energy for refresh commands per rank (pJ)
system.mem_ctrls1.rank0.actBackEnergy    253440642990                       # Energy for active background per rank (pJ)
system.mem_ctrls1.rank0.preBackEnergy     54743908800                       # Energy for precharge background per rank (pJ)
system.mem_ctrls1.rank0.actPowerDownEnergy            0                       # Energy for active power-down per rank (pJ)
system.mem_ctrls1.rank0.prePowerDownEnergy            0                       # Energy for precharge power-down per rank (pJ)
system.mem_ctrls1.rank0.selfRefreshEnergy            0                       # Energy for self refresh per rank (pJ)
system.mem_ctrls1.rank0.totalEnergy      379053211170                       # Total energy per rank (pJ)
system.mem_ctrls1.rank0.averagePower       542.781488                       # Core power per rank (mW)
system.mem_ctrls1.rank0.totalIdleTime               0                       # Total Idle time Per DRAM Rank
system.mem_ctrls1.rank0.memoryStateTime::IDLE 140046978078                       # Time in different power states
system.mem_ctrls1.rank0.memoryStateTime::REF  23319400000                       # Time in different power states
system.mem_ctrls1.rank0.memoryStateTime::SREF            0                       # Time in different power states
system.mem_ctrls1.rank0.memoryStateTime::PRE_PDN            0                       # Time in different power states
system.mem_ctrls1.rank0.memoryStateTime::ACT 534986862923                       # Time in different power states
system.mem_ctrls1.rank0.memoryStateTime::ACT_PDN            0                       # Time in different power states
system.mem_ctrls1.power_state.pwrStateResidencyTicks::UNDEFINED 101804709385001                       # Cumulative time (in ticks) in various power states
system.cpu_voltage_domain.voltage                   1                       # Voltage in Volts
system.iobus.trans_dist::ReadReq                  323                       # Transaction distribution
system.iobus.trans_dist::ReadResp                 323                       # Transaction distribution
system.iobus.trans_dist::WriteReq                3603                       # Transaction distribution
system.iobus.trans_dist::WriteResp               3603                       # Transaction distribution
system.iobus.pkt_count_system.pc.south_bridge.io_apic.int_master::system.ruby.l1_cntrl1.sequencer.pio-slave-port           98                       # Packet count per connected master and slave (bytes)
system.iobus.pkt_count_system.pc.south_bridge.io_apic.int_master::total           98                       # Packet count per connected master and slave (bytes)
system.iobus.pkt_count_system.ruby.l1_cntrl0.sequencer.mem-master-port::system.pc.south_bridge.ide.pio          136                       # Packet count per connected master and slave (bytes)
system.iobus.pkt_count_system.ruby.l1_cntrl0.sequencer.mem-master-port::system.pc.com_1.pio            4                       # Packet count per connected master and slave (bytes)
system.iobus.pkt_count_system.ruby.l1_cntrl0.sequencer.mem-master-port::system.ruby.l1_cntrl0.sequencer.pio-slave-port         1674                       # Packet count per connected master and slave (bytes)
system.iobus.pkt_count_system.ruby.l1_cntrl0.sequencer.mem-master-port::system.ruby.l1_cntrl1.sequencer.pio-slave-port           24                       # Packet count per connected master and slave (bytes)
system.iobus.pkt_count_system.ruby.l1_cntrl0.sequencer.mem-master-port::system.ruby.l1_cntrl2.sequencer.pio-slave-port           24                       # Packet count per connected master and slave (bytes)
system.iobus.pkt_count_system.ruby.l1_cntrl0.sequencer.mem-master-port::system.ruby.l1_cntrl3.sequencer.pio-slave-port           24                       # Packet count per connected master and slave (bytes)
system.iobus.pkt_count_system.ruby.l1_cntrl0.sequencer.mem-master-port::total         1886                       # Packet count per connected master and slave (bytes)
system.iobus.pkt_count_system.ruby.l1_cntrl1.sequencer.mem-master-port::system.pc.south_bridge.ide.pio           60                       # Packet count per connected master and slave (bytes)
system.iobus.pkt_count_system.ruby.l1_cntrl1.sequencer.mem-master-port::system.pc.com_1.pio          348                       # Packet count per connected master and slave (bytes)
system.iobus.pkt_count_system.ruby.l1_cntrl1.sequencer.mem-master-port::system.ruby.l1_cntrl0.sequencer.pio-slave-port           26                       # Packet count per connected master and slave (bytes)
system.iobus.pkt_count_system.ruby.l1_cntrl1.sequencer.mem-master-port::system.ruby.l1_cntrl1.sequencer.pio-slave-port         1770                       # Packet count per connected master and slave (bytes)
system.iobus.pkt_count_system.ruby.l1_cntrl1.sequencer.mem-master-port::system.ruby.l1_cntrl2.sequencer.pio-slave-port           24                       # Packet count per connected master and slave (bytes)
system.iobus.pkt_count_system.ruby.l1_cntrl1.sequencer.mem-master-port::system.ruby.l1_cntrl3.sequencer.pio-slave-port           56                       # Packet count per connected master and slave (bytes)
system.iobus.pkt_count_system.ruby.l1_cntrl1.sequencer.mem-master-port::total         2284                       # Packet count per connected master and slave (bytes)
system.iobus.pkt_count_system.ruby.l1_cntrl2.sequencer.mem-master-port::system.ruby.l1_cntrl0.sequencer.pio-slave-port           18                       # Packet count per connected master and slave (bytes)
system.iobus.pkt_count_system.ruby.l1_cntrl2.sequencer.mem-master-port::system.ruby.l1_cntrl1.sequencer.pio-slave-port           14                       # Packet count per connected master and slave (bytes)
system.iobus.pkt_count_system.ruby.l1_cntrl2.sequencer.mem-master-port::system.ruby.l1_cntrl2.sequencer.pio-slave-port         1606                       # Packet count per connected master and slave (bytes)
system.iobus.pkt_count_system.ruby.l1_cntrl2.sequencer.mem-master-port::system.ruby.l1_cntrl3.sequencer.pio-slave-port           22                       # Packet count per connected master and slave (bytes)
system.iobus.pkt_count_system.ruby.l1_cntrl2.sequencer.mem-master-port::total         1660                       # Packet count per connected master and slave (bytes)
system.iobus.pkt_count_system.ruby.l1_cntrl3.sequencer.mem-master-port::system.pc.south_bridge.ide.pio           34                       # Packet count per connected master and slave (bytes)
system.iobus.pkt_count_system.ruby.l1_cntrl3.sequencer.mem-master-port::system.ruby.l1_cntrl0.sequencer.pio-slave-port           38                       # Packet count per connected master and slave (bytes)
system.iobus.pkt_count_system.ruby.l1_cntrl3.sequencer.mem-master-port::system.ruby.l1_cntrl1.sequencer.pio-slave-port           28                       # Packet count per connected master and slave (bytes)
system.iobus.pkt_count_system.ruby.l1_cntrl3.sequencer.mem-master-port::system.ruby.l1_cntrl2.sequencer.pio-slave-port           32                       # Packet count per connected master and slave (bytes)
system.iobus.pkt_count_system.ruby.l1_cntrl3.sequencer.mem-master-port::system.ruby.l1_cntrl3.sequencer.pio-slave-port         1792                       # Packet count per connected master and slave (bytes)
system.iobus.pkt_count_system.ruby.l1_cntrl3.sequencer.mem-master-port::total         1924                       # Packet count per connected master and slave (bytes)
system.iobus.pkt_count::total                    7852                       # Packet count per connected master and slave (bytes)
system.iobus.pkt_size_system.pc.south_bridge.io_apic.int_master::system.ruby.l1_cntrl1.sequencer.pio-slave-port          196                       # Cumulative packet size per connected master and slave (bytes)
system.iobus.pkt_size_system.pc.south_bridge.io_apic.int_master::total          196                       # Cumulative packet size per connected master and slave (bytes)
system.iobus.pkt_size_system.ruby.l1_cntrl0.sequencer.mem-master-port::system.pc.south_bridge.ide.pio           80                       # Cumulative packet size per connected master and slave (bytes)
system.iobus.pkt_size_system.ruby.l1_cntrl0.sequencer.mem-master-port::system.pc.com_1.pio            2                       # Cumulative packet size per connected master and slave (bytes)
system.iobus.pkt_size_system.ruby.l1_cntrl0.sequencer.mem-master-port::system.ruby.l1_cntrl0.sequencer.pio-slave-port         3348                       # Cumulative packet size per connected master and slave (bytes)
system.iobus.pkt_size_system.ruby.l1_cntrl0.sequencer.mem-master-port::system.ruby.l1_cntrl1.sequencer.pio-slave-port           48                       # Cumulative packet size per connected master and slave (bytes)
system.iobus.pkt_size_system.ruby.l1_cntrl0.sequencer.mem-master-port::system.ruby.l1_cntrl2.sequencer.pio-slave-port           48                       # Cumulative packet size per connected master and slave (bytes)
system.iobus.pkt_size_system.ruby.l1_cntrl0.sequencer.mem-master-port::system.ruby.l1_cntrl3.sequencer.pio-slave-port           48                       # Cumulative packet size per connected master and slave (bytes)
system.iobus.pkt_size_system.ruby.l1_cntrl0.sequencer.mem-master-port::total         3574                       # Cumulative packet size per connected master and slave (bytes)
system.iobus.pkt_size_system.ruby.l1_cntrl1.sequencer.mem-master-port::system.pc.south_bridge.ide.pio           30                       # Cumulative packet size per connected master and slave (bytes)
system.iobus.pkt_size_system.ruby.l1_cntrl1.sequencer.mem-master-port::system.pc.com_1.pio          174                       # Cumulative packet size per connected master and slave (bytes)
system.iobus.pkt_size_system.ruby.l1_cntrl1.sequencer.mem-master-port::system.ruby.l1_cntrl0.sequencer.pio-slave-port           52                       # Cumulative packet size per connected master and slave (bytes)
system.iobus.pkt_size_system.ruby.l1_cntrl1.sequencer.mem-master-port::system.ruby.l1_cntrl1.sequencer.pio-slave-port         3540                       # Cumulative packet size per connected master and slave (bytes)
system.iobus.pkt_size_system.ruby.l1_cntrl1.sequencer.mem-master-port::system.ruby.l1_cntrl2.sequencer.pio-slave-port           48                       # Cumulative packet size per connected master and slave (bytes)
system.iobus.pkt_size_system.ruby.l1_cntrl1.sequencer.mem-master-port::system.ruby.l1_cntrl3.sequencer.pio-slave-port          112                       # Cumulative packet size per connected master and slave (bytes)
system.iobus.pkt_size_system.ruby.l1_cntrl1.sequencer.mem-master-port::total         3956                       # Cumulative packet size per connected master and slave (bytes)
system.iobus.pkt_size_system.ruby.l1_cntrl2.sequencer.mem-master-port::system.ruby.l1_cntrl0.sequencer.pio-slave-port           36                       # Cumulative packet size per connected master and slave (bytes)
system.iobus.pkt_size_system.ruby.l1_cntrl2.sequencer.mem-master-port::system.ruby.l1_cntrl1.sequencer.pio-slave-port           28                       # Cumulative packet size per connected master and slave (bytes)
system.iobus.pkt_size_system.ruby.l1_cntrl2.sequencer.mem-master-port::system.ruby.l1_cntrl2.sequencer.pio-slave-port         3212                       # Cumulative packet size per connected master and slave (bytes)
system.iobus.pkt_size_system.ruby.l1_cntrl2.sequencer.mem-master-port::system.ruby.l1_cntrl3.sequencer.pio-slave-port           44                       # Cumulative packet size per connected master and slave (bytes)
system.iobus.pkt_size_system.ruby.l1_cntrl2.sequencer.mem-master-port::total         3320                       # Cumulative packet size per connected master and slave (bytes)
system.iobus.pkt_size_system.ruby.l1_cntrl3.sequencer.mem-master-port::system.pc.south_bridge.ide.pio           20                       # Cumulative packet size per connected master and slave (bytes)
system.iobus.pkt_size_system.ruby.l1_cntrl3.sequencer.mem-master-port::system.ruby.l1_cntrl0.sequencer.pio-slave-port           76                       # Cumulative packet size per connected master and slave (bytes)
system.iobus.pkt_size_system.ruby.l1_cntrl3.sequencer.mem-master-port::system.ruby.l1_cntrl1.sequencer.pio-slave-port           56                       # Cumulative packet size per connected master and slave (bytes)
system.iobus.pkt_size_system.ruby.l1_cntrl3.sequencer.mem-master-port::system.ruby.l1_cntrl2.sequencer.pio-slave-port           64                       # Cumulative packet size per connected master and slave (bytes)
system.iobus.pkt_size_system.ruby.l1_cntrl3.sequencer.mem-master-port::system.ruby.l1_cntrl3.sequencer.pio-slave-port         3584                       # Cumulative packet size per connected master and slave (bytes)
system.iobus.pkt_size_system.ruby.l1_cntrl3.sequencer.mem-master-port::total         3800                       # Cumulative packet size per connected master and slave (bytes)
system.iobus.pkt_size::total                    14846                       # Cumulative packet size per connected master and slave (bytes)
system.iobus.reqLayer2.occupancy               200000                       # Layer occupancy (ticks)
system.iobus.reqLayer2.utilization                0.0                       # Layer utilization (%)
system.iobus.power_state.pwrStateResidencyTicks::UNDEFINED 101804709385001                       # Cumulative time (in ticks) in various power states
system.iobus.reqLayer19.occupancy             2162483                       # Layer occupancy (ticks)
system.iobus.reqLayer19.utilization               0.0                       # Layer utilization (%)
system.iobus.reqLayer17.occupancy             2229986                       # Layer occupancy (ticks)
system.iobus.reqLayer17.utilization               0.0                       # Layer utilization (%)
system.iobus.reqLayer12.occupancy              246000                       # Layer occupancy (ticks)
system.iobus.reqLayer12.utilization               0.0                       # Layer utilization (%)
system.iobus.reqLayer18.occupancy             2339478                       # Layer occupancy (ticks)
system.iobus.reqLayer18.utilization               0.0                       # Layer utilization (%)
system.iobus.respLayer9.occupancy             1464000                       # Layer occupancy (ticks)
system.iobus.respLayer9.utilization               0.0                       # Layer utilization (%)
system.iobus.respLayer5.occupancy             1782500                       # Layer occupancy (ticks)
system.iobus.respLayer5.utilization               0.0                       # Layer utilization (%)
system.iobus.respLayer7.occupancy             1252999                       # Layer occupancy (ticks)
system.iobus.respLayer7.utilization               0.0                       # Layer utilization (%)
system.iobus.respLayer0.occupancy               73995                       # Layer occupancy (ticks)
system.iobus.respLayer0.utilization               0.0                       # Layer utilization (%)
system.iobus.respLayer3.occupancy             1411500                       # Layer occupancy (ticks)
system.iobus.respLayer3.utilization               0.0                       # Layer utilization (%)
system.iobus.reqLayer20.occupancy             2430247                       # Layer occupancy (ticks)
system.iobus.reqLayer20.utilization               0.0                       # Layer utilization (%)

---------- End Simulation Statistics   ----------
