
---------- Begin Simulation Statistics ----------
final_tick                               114723438437001                       # Number of ticks from beginning of simulation (restored from checkpoints and never reset)
host_inst_rate                                5375544                       # Simulator instruction rate (inst/s)
host_mem_usage                                1695784                       # Number of bytes of host memory used
host_op_rate                                  5525635                       # Simulator op (including micro ops) rate (op/s)
host_seconds                                  4636.83                       # Real time elapsed on the host
host_tick_rate                              123922480                       # Simulator tick rate (ticks/s)
sim_freq                                 1000000000000                       # Frequency of simulated ticks
sim_insts                                 24925464325                       # Number of instructions simulated
sim_ops                                   25621407968                       # Number of ops (including micro ops) simulated
sim_seconds                                  0.574607                       # Number of seconds simulated
sim_ticks                                574607024501                       # Number of ticks simulated
system.cpu0.committedInsts                          0                       # Number of instructions committed
system.cpu0.dtb.rdAccesses                          0                       # TLB accesses on read requests
system.cpu0.dtb.rdMisses                            0                       # TLB misses on read requests
system.cpu0.dtb.wrAccesses                          0                       # TLB accesses on write requests
system.cpu0.dtb.wrMisses                            0                       # TLB misses on write requests
system.cpu0.itb.rdAccesses                          0                       # TLB accesses on read requests
system.cpu0.itb.rdMisses                            0                       # TLB misses on read requests
system.cpu0.itb.wrAccesses                          0                       # TLB accesses on write requests
system.cpu0.itb.wrMisses                            0                       # TLB misses on write requests
system.cpu0.kern.inst.arm                           0                       # number of arm instructions executed
system.cpu0.kern.inst.quiesce                       0                       # number of quiesce instructions executed
system.cpu0.numCoalescedMMIO                        0                       # number of coalesced memory mapped IO requests
system.cpu0.numCycles                               0                       # number of cpu cycles simulated
system.cpu0.numExitSignal                           0                       # exits due to signal delivery
system.cpu0.numHalt                                 0                       # number of VM exits due to wait for interrupt instructions
system.cpu0.numHypercalls                           0                       # number of hypercalls
system.cpu0.numIO                                   0                       # number of VM exits due to legacy IO
system.cpu0.numInterrupts                           0                       # number of interrupts delivered
system.cpu0.numMMIO                                 0                       # number of VM exits due to memory mapped IO
system.cpu0.numVMExits                              0                       # total number of KVM exits
system.cpu0.numVMHalfEntries                        0                       # number of KVM entries to finalize pending operations
system.cpu0.numWorkItemsCompleted                   0                       # number of work items this cpu completed
system.cpu0.numWorkItemsStarted                     0                       # number of work items this cpu started
system.cpu1.committedInsts                          0                       # Number of instructions committed
system.cpu1.dtb.rdAccesses                          0                       # TLB accesses on read requests
system.cpu1.dtb.rdMisses                            0                       # TLB misses on read requests
system.cpu1.dtb.wrAccesses                          0                       # TLB accesses on write requests
system.cpu1.dtb.wrMisses                            0                       # TLB misses on write requests
system.cpu1.itb.rdAccesses                          0                       # TLB accesses on read requests
system.cpu1.itb.rdMisses                            0                       # TLB misses on read requests
system.cpu1.itb.wrAccesses                          0                       # TLB accesses on write requests
system.cpu1.itb.wrMisses                            0                       # TLB misses on write requests
system.cpu1.kern.inst.arm                           0                       # number of arm instructions executed
system.cpu1.kern.inst.quiesce                       0                       # number of quiesce instructions executed
system.cpu1.numCoalescedMMIO                        0                       # number of coalesced memory mapped IO requests
system.cpu1.numCycles                               0                       # number of cpu cycles simulated
system.cpu1.numExitSignal                           0                       # exits due to signal delivery
system.cpu1.numHalt                                 0                       # number of VM exits due to wait for interrupt instructions
system.cpu1.numHypercalls                           0                       # number of hypercalls
system.cpu1.numIO                                   0                       # number of VM exits due to legacy IO
system.cpu1.numInterrupts                           0                       # number of interrupts delivered
system.cpu1.numMMIO                                 0                       # number of VM exits due to memory mapped IO
system.cpu1.numVMExits                              0                       # total number of KVM exits
system.cpu1.numVMHalfEntries                        0                       # number of KVM entries to finalize pending operations
system.cpu1.numWorkItemsCompleted                   0                       # number of work items this cpu completed
system.cpu1.numWorkItemsStarted                     0                       # number of work items this cpu started
system.cpu2.committedInsts                          0                       # Number of instructions committed
system.cpu2.dtb.rdAccesses                          0                       # TLB accesses on read requests
system.cpu2.dtb.rdMisses                            0                       # TLB misses on read requests
system.cpu2.dtb.wrAccesses                          0                       # TLB accesses on write requests
system.cpu2.dtb.wrMisses                            0                       # TLB misses on write requests
system.cpu2.itb.rdAccesses                          0                       # TLB accesses on read requests
system.cpu2.itb.rdMisses                            0                       # TLB misses on read requests
system.cpu2.itb.wrAccesses                          0                       # TLB accesses on write requests
system.cpu2.itb.wrMisses                            0                       # TLB misses on write requests
system.cpu2.kern.inst.arm                           0                       # number of arm instructions executed
system.cpu2.kern.inst.quiesce                       0                       # number of quiesce instructions executed
system.cpu2.numCoalescedMMIO                        0                       # number of coalesced memory mapped IO requests
system.cpu2.numCycles                               0                       # number of cpu cycles simulated
system.cpu2.numExitSignal                           0                       # exits due to signal delivery
system.cpu2.numHalt                                 0                       # number of VM exits due to wait for interrupt instructions
system.cpu2.numHypercalls                           0                       # number of hypercalls
system.cpu2.numIO                                   0                       # number of VM exits due to legacy IO
system.cpu2.numInterrupts                           0                       # number of interrupts delivered
system.cpu2.numMMIO                                 0                       # number of VM exits due to memory mapped IO
system.cpu2.numVMExits                              0                       # total number of KVM exits
system.cpu2.numVMHalfEntries                        0                       # number of KVM entries to finalize pending operations
system.cpu2.numWorkItemsCompleted                   0                       # number of work items this cpu completed
system.cpu2.numWorkItemsStarted                     0                       # number of work items this cpu started
system.cpu3.committedInsts                          0                       # Number of instructions committed
system.cpu3.dtb.rdAccesses                          0                       # TLB accesses on read requests
system.cpu3.dtb.rdMisses                            0                       # TLB misses on read requests
system.cpu3.dtb.wrAccesses                          0                       # TLB accesses on write requests
system.cpu3.dtb.wrMisses                            0                       # TLB misses on write requests
system.cpu3.itb.rdAccesses                          0                       # TLB accesses on read requests
system.cpu3.itb.rdMisses                            0                       # TLB misses on read requests
system.cpu3.itb.wrAccesses                          0                       # TLB accesses on write requests
system.cpu3.itb.wrMisses                            0                       # TLB misses on write requests
system.cpu3.kern.inst.arm                           0                       # number of arm instructions executed
system.cpu3.kern.inst.quiesce                       0                       # number of quiesce instructions executed
system.cpu3.numCoalescedMMIO                        0                       # number of coalesced memory mapped IO requests
system.cpu3.numCycles                               0                       # number of cpu cycles simulated
system.cpu3.numExitSignal                           0                       # exits due to signal delivery
system.cpu3.numHalt                                 0                       # number of VM exits due to wait for interrupt instructions
system.cpu3.numHypercalls                           0                       # number of hypercalls
system.cpu3.numIO                                   0                       # number of VM exits due to legacy IO
system.cpu3.numInterrupts                           0                       # number of interrupts delivered
system.cpu3.numMMIO                                 0                       # number of VM exits due to memory mapped IO
system.cpu3.numVMExits                              0                       # total number of KVM exits
system.cpu3.numVMHalfEntries                        0                       # number of KVM entries to finalize pending operations
system.cpu3.numWorkItemsCompleted                   0                       # number of work items this cpu completed
system.cpu3.numWorkItemsStarted                     0                       # number of work items this cpu started
system.pc.south_bridge.ide.disks.dma_read_bytes            0                       # Number of bytes transfered via DMA reads (not PRD).
system.pc.south_bridge.ide.disks.dma_read_full_pages            0                       # Number of full page size DMA reads (not PRD).
system.pc.south_bridge.ide.disks.dma_read_txs            0                       # Number of DMA read transactions (not PRD).
system.pc.south_bridge.ide.disks.dma_write_bytes       217088                       # Number of bytes transfered via DMA writes.
system.pc.south_bridge.ide.disks.dma_write_full_pages           53                       # Number of full page size DMA writes.
system.pc.south_bridge.ide.disks.dma_write_txs           53                       # Number of DMA write transactions.
system.ruby.DMA_Controller.I.allocI_load |           2    100.00%    100.00% |           0      0.00%    100.00%
system.ruby.DMA_Controller.I.allocI_load::total            2                      
system.ruby.DMA_Controller.I.allocI_store |        3392    100.00%    100.00% |           0      0.00%    100.00%
system.ruby.DMA_Controller.I.allocI_store::total         3392                      
system.ruby.DMA_Controller.I.deallocfwdfrom_in |        2370    100.00%    100.00% |           0      0.00%    100.00%
system.ruby.DMA_Controller.I.deallocfwdfrom_in::total         2370                      
system.ruby.DMA_Controller.M.allocTBE    |        2371    100.00%    100.00% |           0      0.00%    100.00%
system.ruby.DMA_Controller.M.allocTBE::total         2371                      
system.ruby.DMA_Controller.M.externalstoreMrespfrom_in |        3392    100.00%    100.00% |           0      0.00%    100.00%
system.ruby.DMA_Controller.M.externalstoreMrespfrom_in::total         3392                      
system.ruby.DMA_Controller.M_evict.Stallmandatory_in |       35533    100.00%    100.00% |           0      0.00%    100.00%
system.ruby.DMA_Controller.M_evict.Stallmandatory_in::total        35533                      
system.ruby.DMA_Controller.S.SloadSEvent |           5    100.00%    100.00% |           0      0.00%    100.00%
system.ruby.DMA_Controller.S.SloadSEvent::total            5                      
system.ruby.DMA_Controller.S.allocTBE    |           4    100.00%    100.00% |           0      0.00%    100.00%
system.ruby.DMA_Controller.S.allocTBE::total            4                      
system.ruby.DMA_Controller.S.deallocTBE  |           4    100.00%    100.00% |           0      0.00%    100.00%
system.ruby.DMA_Controller.S.deallocTBE::total            4                      
system.ruby.DMA_Controller.S.externalloadSrespfrom_in |           2    100.00%    100.00% |           0      0.00%    100.00%
system.ruby.DMA_Controller.S.externalloadSrespfrom_in::total            2                      
system.ruby.DMA_Controller.S_evict.Stallmandatory_in |          14    100.00%    100.00% |           0      0.00%    100.00%
system.ruby.DMA_Controller.S_evict.Stallmandatory_in::total           14                      
system.ruby.DMA_Controller.SloadSEvent   |           5    100.00%    100.00% |           0      0.00%    100.00%
system.ruby.DMA_Controller.SloadSEvent::total            5                      
system.ruby.DMA_Controller.Stallmandatory_in |       35547    100.00%    100.00% |           0      0.00%    100.00%
system.ruby.DMA_Controller.Stallmandatory_in::total        35547                      
system.ruby.DMA_Controller.allocI_load   |           2    100.00%    100.00% |           0      0.00%    100.00%
system.ruby.DMA_Controller.allocI_load::total            2                      
system.ruby.DMA_Controller.allocI_store  |        3392    100.00%    100.00% |           0      0.00%    100.00%
system.ruby.DMA_Controller.allocI_store::total         3392                      
system.ruby.DMA_Controller.allocTBE      |        2375    100.00%    100.00% |           0      0.00%    100.00%
system.ruby.DMA_Controller.allocTBE::total         2375                      
system.ruby.DMA_Controller.deallocTBE    |           4    100.00%    100.00% |           0      0.00%    100.00%
system.ruby.DMA_Controller.deallocTBE::total            4                      
system.ruby.DMA_Controller.deallocfwdfrom_in |        2370    100.00%    100.00% |           0      0.00%    100.00%
system.ruby.DMA_Controller.deallocfwdfrom_in::total         2370                      
system.ruby.DMA_Controller.externalloadSrespfrom_in |           2    100.00%    100.00% |           0      0.00%    100.00%
system.ruby.DMA_Controller.externalloadSrespfrom_in::total            2                      
system.ruby.DMA_Controller.externalstoreMrespfrom_in |        3392    100.00%    100.00% |           0      0.00%    100.00%
system.ruby.DMA_Controller.externalstoreMrespfrom_in::total         3392                      
system.ruby.Directory_Controller.I.allocTBE |      355575     25.66%     25.66% |      344726     24.88%     50.54% |      329252     23.76%     74.31% |      355989     25.69%    100.00%
system.ruby.Directory_Controller.I.allocTBE::total      1385542                      
system.ruby.Directory_Controller.I.deallocTBE |      354627     25.66%     25.66% |      343826     24.88%     50.55% |      328335     23.76%     74.31% |      355039     25.69%    100.00%
system.ruby.Directory_Controller.I.deallocTBE::total      1381827                      
system.ruby.Directory_Controller.I_GetSL1C1C1_0.Stallreqto_in |          25     54.35%     54.35% |          14     30.43%     84.78% |           3      6.52%     91.30% |           4      8.70%    100.00%
system.ruby.Directory_Controller.I_GetSL1C1C1_0.Stallreqto_in::total           46                      
system.ruby.Directory_Controller.M.allocTBE |       36547     23.70%     23.70% |       38136     24.73%     48.42% |       39978     25.92%     74.35% |       39567     25.65%    100.00%
system.ruby.Directory_Controller.M.allocTBE::total       154228                      
system.ruby.Directory_Controller.M.deallocTBE |       36950     23.71%     23.71% |       38539     24.73%     48.44% |       40383     25.91%     74.35% |       39970     25.65%    100.00%
system.ruby.Directory_Controller.M.deallocTBE::total       155842                      
system.ruby.Directory_Controller.M_GetM.Progress |         215     26.16%     26.16% |         147     17.88%     44.04% |         311     37.83%     81.87% |         149     18.13%    100.00%
system.ruby.Directory_Controller.M_GetM.Progress::total          822                      
system.ruby.Directory_Controller.M_GetS.Progress |        1339     41.11%     41.11% |         646     19.83%     60.95% |         536     16.46%     77.40% |         736     22.60%    100.00%
system.ruby.Directory_Controller.M_GetS.Progress::total         3257                      
system.ruby.Directory_Controller.M_GetS.Stallreqto_in |           0      0.00%      0.00% |           0      0.00%      0.00% |           4    100.00%    100.00% |           0      0.00%    100.00%
system.ruby.Directory_Controller.M_GetS.Stallreqto_in::total            4                      
system.ruby.Directory_Controller.M_GetS_WBL1C1C1_0.Stallreqto_in |           6     19.35%     19.35% |           0      0.00%     19.35% |          13     41.94%     61.29% |          12     38.71%    100.00%
system.ruby.Directory_Controller.M_GetS_WBL1C1C1_0.Stallreqto_in::total           31                      
system.ruby.Directory_Controller.Progress |        1554     38.10%     38.10% |         793     19.44%     57.54% |         847     20.76%     78.30% |         885     21.70%    100.00%
system.ruby.Directory_Controller.Progress::total         4079                      
system.ruby.Directory_Controller.S.allocTBE |      663527     26.13%     26.13% |      615698     24.25%     50.38% |      615414     24.24%     74.61% |      644702     25.39%    100.00%
system.ruby.Directory_Controller.S.allocTBE::total      2539341                      
system.ruby.Directory_Controller.S.deallocTBE |      664072     26.13%     26.13% |      616195     24.25%     50.38% |      615926     24.24%     74.61% |      645249     25.39%    100.00%
system.ruby.Directory_Controller.S.deallocTBE::total      2541442                      
system.ruby.Directory_Controller.S_GetM.Stallreqto_in |           0      0.00%      0.00% |           0      0.00%      0.00% |           2    100.00%    100.00% |           0      0.00%    100.00%
system.ruby.Directory_Controller.S_GetM.Stallreqto_in::total            2                      
system.ruby.Directory_Controller.S_GetM.allocTBE |        1423     39.34%     39.34% |         718     19.85%     59.19% |         732     20.24%     79.43% |         744     20.57%    100.00%
system.ruby.Directory_Controller.S_GetM.allocTBE::total         3617                      
system.ruby.Directory_Controller.S_GetM.deallocTBE |        1423     39.34%     39.34% |         718     19.85%     59.19% |         732     20.24%     79.43% |         744     20.57%    100.00%
system.ruby.Directory_Controller.S_GetM.deallocTBE::total         3617                      
system.ruby.Directory_Controller.S_GetSL1C1C1_0.Stallreqto_in |          98     42.79%     42.79% |          38     16.59%     59.39% |          47     20.52%     79.91% |          46     20.09%    100.00%
system.ruby.Directory_Controller.S_GetSL1C1C1_0.Stallreqto_in::total          229                      
system.ruby.Directory_Controller.Stallreqto_in |         129     41.35%     41.35% |          52     16.67%     58.01% |          69     22.12%     80.13% |          62     19.87%    100.00%
system.ruby.Directory_Controller.Stallreqto_in::total          312                      
system.ruby.Directory_Controller.allocTBE |     1057072     25.89%     25.89% |      999278     24.48%     50.37% |      985376     24.14%     74.50% |     1041002     25.50%    100.00%
system.ruby.Directory_Controller.allocTBE::total      4082728                      
system.ruby.Directory_Controller.deallocTBE |     1057072     25.89%     25.89% |      999278     24.48%     50.37% |      985376     24.14%     74.50% |     1041002     25.50%    100.00%
system.ruby.Directory_Controller.deallocTBE::total      4082728                      
system.ruby.IFETCH.hit_latency_hist_seqr::bucket_size            1                      
system.ruby.IFETCH.hit_latency_hist_seqr::max_bucket            9                      
system.ruby.IFETCH.hit_latency_hist_seqr::samples   1536592800                      
system.ruby.IFETCH.hit_latency_hist_seqr |  1536592800    100.00%    100.00% |           0      0.00%    100.00% |           0      0.00%    100.00% |           0      0.00%    100.00% |           0      0.00%    100.00% |           0      0.00%    100.00% |           0      0.00%    100.00% |           0      0.00%    100.00% |           0      0.00%    100.00% |           0      0.00%    100.00%
system.ruby.IFETCH.hit_latency_hist_seqr::total   1536592800                      
system.ruby.IFETCH.latency_hist_seqr::bucket_size            1                      
system.ruby.IFETCH.latency_hist_seqr::max_bucket            9                      
system.ruby.IFETCH.latency_hist_seqr::samples   1537201771                      
system.ruby.IFETCH.latency_hist_seqr     |  1537201771    100.00%    100.00% |           0      0.00%    100.00% |           0      0.00%    100.00% |           0      0.00%    100.00% |           0      0.00%    100.00% |           0      0.00%    100.00% |           0      0.00%    100.00% |           0      0.00%    100.00% |           0      0.00%    100.00% |           0      0.00%    100.00%
system.ruby.IFETCH.latency_hist_seqr::total   1537201771                      
system.ruby.IFETCH.miss_latency_hist_seqr::bucket_size            1                      
system.ruby.IFETCH.miss_latency_hist_seqr::max_bucket            9                      
system.ruby.IFETCH.miss_latency_hist_seqr::samples       608971                      
system.ruby.IFETCH.miss_latency_hist_seqr |      608971    100.00%    100.00% |           0      0.00%    100.00% |           0      0.00%    100.00% |           0      0.00%    100.00% |           0      0.00%    100.00% |           0      0.00%    100.00% |           0      0.00%    100.00% |           0      0.00%    100.00% |           0      0.00%    100.00% |           0      0.00%    100.00%
system.ruby.IFETCH.miss_latency_hist_seqr::total       608971                      
system.ruby.L1Cache_Controller.I.allocI_load |      546500     28.51%     28.51% |      445398     23.24%     51.75% |      482019     25.15%     76.91% |      442624     23.09%    100.00%
system.ruby.L1Cache_Controller.I.allocI_load::total      1916541                      
system.ruby.L1Cache_Controller.I.allocI_store |       37117     36.69%     36.69% |       22596     22.33%     59.02% |       23457     23.18%     82.20% |       18007     17.80%    100.00%
system.ruby.L1Cache_Controller.I.allocI_store::total       101177                      
system.ruby.L1Cache_Controller.I.deallocfwdfrom_in |      582598     28.93%     28.93% |      466979     23.19%     52.12% |      504454     25.05%     77.17% |      459622     22.83%    100.00%
system.ruby.L1Cache_Controller.I.deallocfwdfrom_in::total      2013653                      
system.ruby.L1Cache_Controller.I_store.Progress |        1347     95.53%     95.53% |          12      0.85%     96.38% |          36      2.55%     98.94% |          15      1.06%    100.00%
system.ruby.L1Cache_Controller.I_store.Progress::total         1410                      
system.ruby.L1Cache_Controller.I_store.Stallfwdfrom_in |           2    100.00%    100.00% |           0      0.00%    100.00% |           0      0.00%    100.00% |           0      0.00%    100.00%
system.ruby.L1Cache_Controller.I_store.Stallfwdfrom_in::total            2                      
system.ruby.L1Cache_Controller.M.MloadMEvent |    72755454     25.99%     25.99% |    72527661     25.90%     51.89% |    66743895     23.84%     75.73% |    67957706     24.27%    100.00%
system.ruby.L1Cache_Controller.M.MloadMEvent::total    279984716                      
system.ruby.L1Cache_Controller.M.MstoreMEvent |    29701624     26.30%     26.30% |    28789765     25.49%     51.79% |    26580152     23.54%     75.33% |    27859768     24.67%    100.00%
system.ruby.L1Cache_Controller.M.MstoreMEvent::total    112931309                      
system.ruby.L1Cache_Controller.M.allocTBE |       52524     34.59%     34.59% |       30270     19.93%     54.52% |       39345     25.91%     80.43% |       29718     19.57%    100.00%
system.ruby.L1Cache_Controller.M.allocTBE::total       151857                      
system.ruby.L1Cache_Controller.M.externalstoreMrespfrom_in |       52645     34.53%     34.53% |       30397     19.94%     54.47% |       39469     25.89%     80.36% |       29939     19.64%    100.00%
system.ruby.L1Cache_Controller.M.externalstoreMrespfrom_in::total       152450                      
system.ruby.L1Cache_Controller.M_evict.Stallmandatory_in |          17     12.41%     12.41% |          15     10.95%     23.36% |          75     54.74%     78.10% |          30     21.90%    100.00%
system.ruby.L1Cache_Controller.M_evict.Stallmandatory_in::total          137                      
system.ruby.L1Cache_Controller.MloadMEvent |    72755454     25.99%     25.99% |    72527661     25.90%     51.89% |    66743895     23.84%     75.73% |    67957706     24.27%    100.00%
system.ruby.L1Cache_Controller.MloadMEvent::total    279984716                      
system.ruby.L1Cache_Controller.MstoreMEvent |    29701624     26.30%     26.30% |    28789765     25.49%     51.79% |    26580152     23.54%     75.33% |    27859768     24.67%    100.00%
system.ruby.L1Cache_Controller.MstoreMEvent::total    112931309                      
system.ruby.L1Cache_Controller.Progress  |       23346     39.07%     39.07% |        8005     13.40%     52.47% |       16281     27.25%     79.72% |       12116     20.28%    100.00%
system.ruby.L1Cache_Controller.Progress::total        59748                      
system.ruby.L1Cache_Controller.S.SloadSEvent |   417779917     26.52%     26.52% |   396529654     25.17%     51.68% |   377200116     23.94%     75.62% |   384044463     24.38%    100.00%
system.ruby.L1Cache_Controller.S.SloadSEvent::total   1575554150                      
system.ruby.L1Cache_Controller.S.allocTBE |      548128     28.60%     28.60% |      444712     23.21%     51.81% |      481451     25.12%     76.93% |      442031     23.07%    100.00%
system.ruby.L1Cache_Controller.S.allocTBE::total      1916322                      
system.ruby.L1Cache_Controller.S.deallocTBE |        2526     77.65%     77.65% |         202      6.21%     83.86% |         330     10.14%     94.01% |         195      5.99%    100.00%
system.ruby.L1Cache_Controller.S.deallocTBE::total         3253                      
system.ruby.L1Cache_Controller.S.externalloadSrespfrom_in |      546500     28.51%     28.51% |      445398     23.24%     51.75% |      482019     25.15%     76.91% |      442624     23.09%    100.00%
system.ruby.L1Cache_Controller.S.externalloadSrespfrom_in::total      1916541                      
system.ruby.L1Cache_Controller.S_evict.Stallmandatory_in |          62     25.10%     25.10% |          38     15.38%     40.49% |          80     32.39%     72.87% |          67     27.13%    100.00%
system.ruby.L1Cache_Controller.S_evict.Stallmandatory_in::total          247                      
system.ruby.L1Cache_Controller.S_store.Progress |       21999     37.71%     37.71% |        7993     13.70%     51.41% |       16245     27.85%     79.26% |       12101     20.74%    100.00%
system.ruby.L1Cache_Controller.S_store.Progress::total        58338                      
system.ruby.L1Cache_Controller.SloadSEvent |   417779917     26.52%     26.52% |   396529654     25.17%     51.68% |   377200116     23.94%     75.62% |   384044463     24.38%    100.00%
system.ruby.L1Cache_Controller.SloadSEvent::total   1575554150                      
system.ruby.L1Cache_Controller.Stallfwdfrom_in |           2    100.00%    100.00% |           0      0.00%    100.00% |           0      0.00%    100.00% |           0      0.00%    100.00%
system.ruby.L1Cache_Controller.Stallfwdfrom_in::total            2                      
system.ruby.L1Cache_Controller.Stallmandatory_in |          79     20.57%     20.57% |          53     13.80%     34.38% |         155     40.36%     74.74% |          97     25.26%    100.00%
system.ruby.L1Cache_Controller.Stallmandatory_in::total          384                      
system.ruby.L1Cache_Controller.allocI_load |      546500     28.51%     28.51% |      445398     23.24%     51.75% |      482019     25.15%     76.91% |      442624     23.09%    100.00%
system.ruby.L1Cache_Controller.allocI_load::total      1916541                      
system.ruby.L1Cache_Controller.allocI_store |       37117     36.69%     36.69% |       22596     22.33%     59.02% |       23457     23.18%     82.20% |       18007     17.80%    100.00%
system.ruby.L1Cache_Controller.allocI_store::total       101177                      
system.ruby.L1Cache_Controller.allocTBE  |      600652     29.04%     29.04% |      474982     22.97%     52.01% |      520796     25.18%     77.19% |      471749     22.81%    100.00%
system.ruby.L1Cache_Controller.allocTBE::total      2068179                      
system.ruby.L1Cache_Controller.deallocTBE |        2526     77.65%     77.65% |         202      6.21%     83.86% |         330     10.14%     94.01% |         195      5.99%    100.00%
system.ruby.L1Cache_Controller.deallocTBE::total         3253                      
system.ruby.L1Cache_Controller.deallocfwdfrom_in |      582598     28.93%     28.93% |      466979     23.19%     52.12% |      504454     25.05%     77.17% |      459622     22.83%    100.00%
system.ruby.L1Cache_Controller.deallocfwdfrom_in::total      2013653                      
system.ruby.L1Cache_Controller.externalloadSrespfrom_in |      546500     28.51%     28.51% |      445398     23.24%     51.75% |      482019     25.15%     76.91% |      442624     23.09%    100.00%
system.ruby.L1Cache_Controller.externalloadSrespfrom_in::total      1916541                      
system.ruby.L1Cache_Controller.externalstoreMrespfrom_in |       52645     34.53%     34.53% |       30397     19.94%     54.47% |       39469     25.89%     80.36% |       29939     19.64%    100.00%
system.ruby.L1Cache_Controller.externalstoreMrespfrom_in::total       152450                      
system.ruby.LD.hit_latency_hist_seqr::bucket_size            1                      
system.ruby.LD.hit_latency_hist_seqr::max_bucket            9                      
system.ruby.LD.hit_latency_hist_seqr::samples    318946066                      
system.ruby.LD.hit_latency_hist_seqr     |   318946066    100.00%    100.00% |           0      0.00%    100.00% |           0      0.00%    100.00% |           0      0.00%    100.00% |           0      0.00%    100.00% |           0      0.00%    100.00% |           0      0.00%    100.00% |           0      0.00%    100.00% |           0      0.00%    100.00% |           0      0.00%    100.00%
system.ruby.LD.hit_latency_hist_seqr::total    318946066                      
system.ruby.LD.latency_hist_seqr::bucket_size            1                      
system.ruby.LD.latency_hist_seqr::max_bucket            9                      
system.ruby.LD.latency_hist_seqr::samples    320253636                      
system.ruby.LD.latency_hist_seqr         |   320253636    100.00%    100.00% |           0      0.00%    100.00% |           0      0.00%    100.00% |           0      0.00%    100.00% |           0      0.00%    100.00% |           0      0.00%    100.00% |           0      0.00%    100.00% |           0      0.00%    100.00% |           0      0.00%    100.00% |           0      0.00%    100.00%
system.ruby.LD.latency_hist_seqr::total     320253636                      
system.ruby.LD.miss_latency_hist_seqr::bucket_size            1                      
system.ruby.LD.miss_latency_hist_seqr::max_bucket            9                      
system.ruby.LD.miss_latency_hist_seqr::samples      1307570                      
system.ruby.LD.miss_latency_hist_seqr    |     1307570    100.00%    100.00% |           0      0.00%    100.00% |           0      0.00%    100.00% |           0      0.00%    100.00% |           0      0.00%    100.00% |           0      0.00%    100.00% |           0      0.00%    100.00% |           0      0.00%    100.00% |           0      0.00%    100.00% |           0      0.00%    100.00%
system.ruby.LD.miss_latency_hist_seqr::total      1307570                      
system.ruby.Locked_RMW_Read.hit_latency_hist_seqr::bucket_size            1                      
system.ruby.Locked_RMW_Read.hit_latency_hist_seqr::max_bucket            9                      
system.ruby.Locked_RMW_Read.hit_latency_hist_seqr::samples        20591                      
system.ruby.Locked_RMW_Read.hit_latency_hist_seqr |       20591    100.00%    100.00% |           0      0.00%    100.00% |           0      0.00%    100.00% |           0      0.00%    100.00% |           0      0.00%    100.00% |           0      0.00%    100.00% |           0      0.00%    100.00% |           0      0.00%    100.00% |           0      0.00%    100.00% |           0      0.00%    100.00%
system.ruby.Locked_RMW_Read.hit_latency_hist_seqr::total        20591                      
system.ruby.Locked_RMW_Read.latency_hist_seqr::bucket_size            1                      
system.ruby.Locked_RMW_Read.latency_hist_seqr::max_bucket            9                      
system.ruby.Locked_RMW_Read.latency_hist_seqr::samples        25663                      
system.ruby.Locked_RMW_Read.latency_hist_seqr |       25663    100.00%    100.00% |           0      0.00%    100.00% |           0      0.00%    100.00% |           0      0.00%    100.00% |           0      0.00%    100.00% |           0      0.00%    100.00% |           0      0.00%    100.00% |           0      0.00%    100.00% |           0      0.00%    100.00% |           0      0.00%    100.00%
system.ruby.Locked_RMW_Read.latency_hist_seqr::total        25663                      
system.ruby.Locked_RMW_Read.miss_latency_hist_seqr::bucket_size            1                      
system.ruby.Locked_RMW_Read.miss_latency_hist_seqr::max_bucket            9                      
system.ruby.Locked_RMW_Read.miss_latency_hist_seqr::samples         5072                      
system.ruby.Locked_RMW_Read.miss_latency_hist_seqr |        5072    100.00%    100.00% |           0      0.00%    100.00% |           0      0.00%    100.00% |           0      0.00%    100.00% |           0      0.00%    100.00% |           0      0.00%    100.00% |           0      0.00%    100.00% |           0      0.00%    100.00% |           0      0.00%    100.00% |           0      0.00%    100.00%
system.ruby.Locked_RMW_Read.miss_latency_hist_seqr::total         5072                      
system.ruby.Locked_RMW_Write.hit_latency_hist_seqr::bucket_size            1                      
system.ruby.Locked_RMW_Write.hit_latency_hist_seqr::max_bucket            9                      
system.ruby.Locked_RMW_Write.hit_latency_hist_seqr::samples        25663                      
system.ruby.Locked_RMW_Write.hit_latency_hist_seqr |       25663    100.00%    100.00% |           0      0.00%    100.00% |           0      0.00%    100.00% |           0      0.00%    100.00% |           0      0.00%    100.00% |           0      0.00%    100.00% |           0      0.00%    100.00% |           0      0.00%    100.00% |           0      0.00%    100.00% |           0      0.00%    100.00%
system.ruby.Locked_RMW_Write.hit_latency_hist_seqr::total        25663                      
system.ruby.Locked_RMW_Write.latency_hist_seqr::bucket_size            1                      
system.ruby.Locked_RMW_Write.latency_hist_seqr::max_bucket            9                      
system.ruby.Locked_RMW_Write.latency_hist_seqr::samples        25663                      
system.ruby.Locked_RMW_Write.latency_hist_seqr |       25663    100.00%    100.00% |           0      0.00%    100.00% |           0      0.00%    100.00% |           0      0.00%    100.00% |           0      0.00%    100.00% |           0      0.00%    100.00% |           0      0.00%    100.00% |           0      0.00%    100.00% |           0      0.00%    100.00% |           0      0.00%    100.00%
system.ruby.Locked_RMW_Write.latency_hist_seqr::total        25663                      
system.ruby.RMW_Read.hit_latency_hist_seqr::bucket_size            1                      
system.ruby.RMW_Read.hit_latency_hist_seqr::max_bucket            9                      
system.ruby.RMW_Read.hit_latency_hist_seqr::samples      1981575                      
system.ruby.RMW_Read.hit_latency_hist_seqr |     1981575    100.00%    100.00% |           0      0.00%    100.00% |           0      0.00%    100.00% |           0      0.00%    100.00% |           0      0.00%    100.00% |           0      0.00%    100.00% |           0      0.00%    100.00% |           0      0.00%    100.00% |           0      0.00%    100.00% |           0      0.00%    100.00%
system.ruby.RMW_Read.hit_latency_hist_seqr::total      1981575                      
system.ruby.RMW_Read.latency_hist_seqr::bucket_size            1                      
system.ruby.RMW_Read.latency_hist_seqr::max_bucket            9                      
system.ruby.RMW_Read.latency_hist_seqr::samples      1997676                      
system.ruby.RMW_Read.latency_hist_seqr   |     1997676    100.00%    100.00% |           0      0.00%    100.00% |           0      0.00%    100.00% |           0      0.00%    100.00% |           0      0.00%    100.00% |           0      0.00%    100.00% |           0      0.00%    100.00% |           0      0.00%    100.00% |           0      0.00%    100.00% |           0      0.00%    100.00%
system.ruby.RMW_Read.latency_hist_seqr::total      1997676                      
system.ruby.RMW_Read.miss_latency_hist_seqr::bucket_size            1                      
system.ruby.RMW_Read.miss_latency_hist_seqr::max_bucket            9                      
system.ruby.RMW_Read.miss_latency_hist_seqr::samples        16101                      
system.ruby.RMW_Read.miss_latency_hist_seqr |       16101    100.00%    100.00% |           0      0.00%    100.00% |           0      0.00%    100.00% |           0      0.00%    100.00% |           0      0.00%    100.00% |           0      0.00%    100.00% |           0      0.00%    100.00% |           0      0.00%    100.00% |           0      0.00%    100.00% |           0      0.00%    100.00%
system.ruby.RMW_Read.miss_latency_hist_seqr::total        16101                      
system.ruby.ST.hit_latency_hist_seqr::bucket_size            1                      
system.ruby.ST.hit_latency_hist_seqr::max_bucket            9                      
system.ruby.ST.hit_latency_hist_seqr::samples    110903480                      
system.ruby.ST.hit_latency_hist_seqr     |   110903480    100.00%    100.00% |           0      0.00%    100.00% |           0      0.00%    100.00% |           0      0.00%    100.00% |           0      0.00%    100.00% |           0      0.00%    100.00% |           0      0.00%    100.00% |           0      0.00%    100.00% |           0      0.00%    100.00% |           0      0.00%    100.00%
system.ruby.ST.hit_latency_hist_seqr::total    110903480                      
system.ruby.ST.latency_hist_seqr::bucket_size            1                      
system.ruby.ST.latency_hist_seqr::max_bucket            9                      
system.ruby.ST.latency_hist_seqr::samples    111034757                      
system.ruby.ST.latency_hist_seqr         |   111034757    100.00%    100.00% |           0      0.00%    100.00% |           0      0.00%    100.00% |           0      0.00%    100.00% |           0      0.00%    100.00% |           0      0.00%    100.00% |           0      0.00%    100.00% |           0      0.00%    100.00% |           0      0.00%    100.00% |           0      0.00%    100.00%
system.ruby.ST.latency_hist_seqr::total     111034757                      
system.ruby.ST.miss_latency_hist_seqr::bucket_size            1                      
system.ruby.ST.miss_latency_hist_seqr::max_bucket            9                      
system.ruby.ST.miss_latency_hist_seqr::samples       131277                      
system.ruby.ST.miss_latency_hist_seqr    |      131277    100.00%    100.00% |           0      0.00%    100.00% |           0      0.00%    100.00% |           0      0.00%    100.00% |           0      0.00%    100.00% |           0      0.00%    100.00% |           0      0.00%    100.00% |           0      0.00%    100.00% |           0      0.00%    100.00% |           0      0.00%    100.00%
system.ruby.ST.miss_latency_hist_seqr::total       131277                      
system.ruby.dir_cntrl0.fwdFrom.avg_buf_msgs     0.002724                       # Average number of messages in buffer
system.ruby.dir_cntrl0.fwdFrom.avg_stall_time  2999.979067                       # Average number of cycles messages are stalled in this MB
system.ruby.dir_cntrl0.reqTo.avg_buf_msgs     0.000920                       # Average number of messages in buffer
system.ruby.dir_cntrl0.reqTo.avg_stall_time  4173.453581                       # Average number of cycles messages are stalled in this MB
system.ruby.dir_cntrl0.requestToMemory.avg_buf_msgs     0.000497                       # Average number of messages in buffer
system.ruby.dir_cntrl0.requestToMemory.avg_stall_time   499.999903                       # Average number of cycles messages are stalled in this MB
system.ruby.dir_cntrl0.respFrom.avg_buf_msgs     0.002805                       # Average number of messages in buffer
system.ruby.dir_cntrl0.respFrom.avg_stall_time  3000.406002                       # Average number of cycles messages are stalled in this MB
system.ruby.dir_cntrl0.respTo.avg_buf_msgs     0.000003                       # Average number of messages in buffer
system.ruby.dir_cntrl0.respTo.avg_stall_time  8093.394147                       # Average number of cycles messages are stalled in this MB
system.ruby.dir_cntrl0.responseFromMemory.avg_buf_msgs     0.000498                       # Average number of messages in buffer
system.ruby.dir_cntrl0.responseFromMemory.avg_stall_time   499.999829                       # Average number of cycles messages are stalled in this MB
system.ruby.dir_cntrl1.fwdFrom.avg_buf_msgs     0.002571                       # Average number of messages in buffer
system.ruby.dir_cntrl1.fwdFrom.avg_stall_time  2999.914713                       # Average number of cycles messages are stalled in this MB
system.ruby.dir_cntrl1.reqTo.avg_buf_msgs     0.000869                       # Average number of messages in buffer
system.ruby.dir_cntrl1.reqTo.avg_stall_time  4299.429614                       # Average number of cycles messages are stalled in this MB
system.ruby.dir_cntrl1.requestToMemory.avg_buf_msgs     0.000474                       # Average number of messages in buffer
system.ruby.dir_cntrl1.requestToMemory.avg_stall_time   499.999896                       # Average number of cycles messages are stalled in this MB
system.ruby.dir_cntrl1.respFrom.avg_buf_msgs     0.002658                       # Average number of messages in buffer
system.ruby.dir_cntrl1.respFrom.avg_stall_time  3000.519358                       # Average number of cycles messages are stalled in this MB
system.ruby.dir_cntrl1.respTo.avg_buf_msgs     0.000001                       # Average number of messages in buffer
system.ruby.dir_cntrl1.respTo.avg_stall_time  8034.818719                       # Average number of cycles messages are stalled in this MB
system.ruby.dir_cntrl1.responseFromMemory.avg_buf_msgs     0.000474                       # Average number of messages in buffer
system.ruby.dir_cntrl1.responseFromMemory.avg_stall_time   499.999822                       # Average number of cycles messages are stalled in this MB
system.ruby.dir_cntrl2.fwdFrom.avg_buf_msgs     0.002539                       # Average number of messages in buffer
system.ruby.dir_cntrl2.fwdFrom.avg_stall_time  2999.865751                       # Average number of cycles messages are stalled in this MB
system.ruby.dir_cntrl2.reqTo.avg_buf_msgs     0.000857                       # Average number of messages in buffer
system.ruby.dir_cntrl2.reqTo.avg_stall_time  4348.879356                       # Average number of cycles messages are stalled in this MB
system.ruby.dir_cntrl2.requestToMemory.avg_buf_msgs     0.000469                       # Average number of messages in buffer
system.ruby.dir_cntrl2.requestToMemory.avg_stall_time   499.999709                       # Average number of cycles messages are stalled in this MB
system.ruby.dir_cntrl2.respFrom.avg_buf_msgs     0.002639                       # Average number of messages in buffer
system.ruby.dir_cntrl2.respFrom.avg_stall_time  3001.250734                       # Average number of cycles messages are stalled in this MB
system.ruby.dir_cntrl2.respTo.avg_buf_msgs     0.000001                       # Average number of messages in buffer
system.ruby.dir_cntrl2.respTo.avg_stall_time  7177.927352                       # Average number of cycles messages are stalled in this MB
system.ruby.dir_cntrl2.responseFromMemory.avg_buf_msgs     0.000469                       # Average number of messages in buffer
system.ruby.dir_cntrl2.responseFromMemory.avg_stall_time   499.999636                       # Average number of cycles messages are stalled in this MB
system.ruby.dir_cntrl3.fwdFrom.avg_buf_msgs     0.002683                       # Average number of messages in buffer
system.ruby.dir_cntrl3.fwdFrom.avg_stall_time  2999.986872                       # Average number of cycles messages are stalled in this MB
system.ruby.dir_cntrl3.reqTo.avg_buf_msgs     0.000906                       # Average number of messages in buffer
system.ruby.dir_cntrl3.reqTo.avg_stall_time  4407.588859                       # Average number of cycles messages are stalled in this MB
system.ruby.dir_cntrl3.requestToMemory.avg_buf_msgs     0.000493                       # Average number of messages in buffer
system.ruby.dir_cntrl3.requestToMemory.avg_stall_time   499.999995                       # Average number of cycles messages are stalled in this MB
system.ruby.dir_cntrl3.respFrom.avg_buf_msgs     0.002789                       # Average number of messages in buffer
system.ruby.dir_cntrl3.respFrom.avg_stall_time  3001.377831                       # Average number of cycles messages are stalled in this MB
system.ruby.dir_cntrl3.respTo.avg_buf_msgs     0.000001                       # Average number of messages in buffer
system.ruby.dir_cntrl3.respTo.avg_stall_time  9777.785948                       # Average number of cycles messages are stalled in this MB
system.ruby.dir_cntrl3.responseFromMemory.avg_buf_msgs     0.000493                       # Average number of messages in buffer
system.ruby.dir_cntrl3.responseFromMemory.avg_stall_time   499.999922                       # Average number of cycles messages are stalled in this MB
system.ruby.dma_cntrl0.cache.demand_accesses            0                       # Number of cache demand accesses
system.ruby.dma_cntrl0.cache.demand_hits            0                       # Number of cache demand hits
system.ruby.dma_cntrl0.cache.demand_misses            0                       # Number of cache demand misses
system.ruby.dma_cntrl0.fully_busy_cycles         6584                       # cycles for which number of transistions == max transitions
system.ruby.dma_cntrl0.fwdFrom.avg_buf_msgs     0.000002                       # Average number of messages in buffer
system.ruby.dma_cntrl0.fwdFrom.avg_stall_time  4948.401615                       # Average number of cycles messages are stalled in this MB
system.ruby.dma_cntrl0.mandatoryQueue.avg_buf_msgs     0.000378                       # Average number of messages in buffer
system.ruby.dma_cntrl0.mandatoryQueue.avg_stall_time 106903.754543                       # Average number of cycles messages are stalled in this MB
system.ruby.dma_cntrl0.reqTo.avg_buf_msgs     0.000604                       # Average number of messages in buffer
system.ruby.dma_cntrl0.reqTo.avg_stall_time 10559.680126                       # Average number of cycles messages are stalled in this MB
system.ruby.dma_cntrl0.respFrom.avg_buf_msgs     0.000003                       # Average number of messages in buffer
system.ruby.dma_cntrl0.respFrom.avg_stall_time 71926.174127                       # Average number of cycles messages are stalled in this MB
system.ruby.dma_cntrl0.respTo.avg_buf_msgs     0.000000                       # Average number of messages in buffer
system.ruby.dma_cntrl0.respTo.avg_stall_time   659.754026                       # Average number of cycles messages are stalled in this MB
system.ruby.hit_latency_hist_seqr::bucket_size            1                      
system.ruby.hit_latency_hist_seqr::max_bucket            9                      
system.ruby.hit_latency_hist_seqr::samples   1968470175                      
system.ruby.hit_latency_hist_seqr        |  1968470175    100.00%    100.00% |           0      0.00%    100.00% |           0      0.00%    100.00% |           0      0.00%    100.00% |           0      0.00%    100.00% |           0      0.00%    100.00% |           0      0.00%    100.00% |           0      0.00%    100.00% |           0      0.00%    100.00% |           0      0.00%    100.00%
system.ruby.hit_latency_hist_seqr::total   1968470175                      
system.ruby.io_controller.cache.demand_accesses            0                       # Number of cache demand accesses
system.ruby.io_controller.cache.demand_hits            0                       # Number of cache demand hits
system.ruby.io_controller.cache.demand_misses            0                       # Number of cache demand misses
system.ruby.l1_cntrl0.cache.demand_accesses            0                       # Number of cache demand accesses
system.ruby.l1_cntrl0.cache.demand_hits             0                       # Number of cache demand hits
system.ruby.l1_cntrl0.cache.demand_misses            0                       # Number of cache demand misses
system.ruby.l1_cntrl0.fully_busy_cycles             8                       # cycles for which number of transistions == max transitions
system.ruby.l1_cntrl0.fwdFrom.avg_buf_msgs     0.000509                       # Average number of messages in buffer
system.ruby.l1_cntrl0.fwdFrom.avg_stall_time  6466.284437                       # Average number of cycles messages are stalled in this MB
system.ruby.l1_cntrl0.mandatoryQueue.avg_buf_msgs     0.464952                       # Average number of messages in buffer
system.ruby.l1_cntrl0.mandatoryQueue.avg_stall_time  1124.371946                       # Average number of cycles messages are stalled in this MB
system.ruby.l1_cntrl0.reqTo.avg_buf_msgs     0.001028                       # Average number of messages in buffer
system.ruby.l1_cntrl0.reqTo.avg_stall_time   499.999999                       # Average number of cycles messages are stalled in this MB
system.ruby.l1_cntrl0.respFrom.avg_buf_msgs     0.000528                       # Average number of messages in buffer
system.ruby.l1_cntrl0.respFrom.avg_stall_time 16475.812569                       # Average number of cycles messages are stalled in this MB
system.ruby.l1_cntrl0.respTo.avg_buf_msgs     0.000010                       # Average number of messages in buffer
system.ruby.l1_cntrl0.respTo.avg_stall_time   749.765634                       # Average number of cycles messages are stalled in this MB
system.ruby.l1_cntrl1.cache.demand_accesses            0                       # Number of cache demand accesses
system.ruby.l1_cntrl1.cache.demand_hits             0                       # Number of cache demand hits
system.ruby.l1_cntrl1.cache.demand_misses            0                       # Number of cache demand misses
system.ruby.l1_cntrl1.fully_busy_cycles             3                       # cycles for which number of transistions == max transitions
system.ruby.l1_cntrl1.fwdFrom.avg_buf_msgs     0.992250                       # Average number of messages in buffer
system.ruby.l1_cntrl1.fwdFrom.avg_stall_time  6569.129669                       # Average number of cycles messages are stalled in this MB
system.ruby.l1_cntrl1.mandatoryQueue.avg_buf_msgs     0.442875                       # Average number of messages in buffer
system.ruby.l1_cntrl1.mandatoryQueue.avg_stall_time  1014.120041                       # Average number of cycles messages are stalled in this MB
system.ruby.l1_cntrl1.reqTo.avg_buf_msgs     0.000818                       # Average number of messages in buffer
system.ruby.l1_cntrl1.reqTo.avg_stall_time   499.998595                       # Average number of cycles messages are stalled in this MB
system.ruby.l1_cntrl1.respFrom.avg_buf_msgs     0.000414                       # Average number of messages in buffer
system.ruby.l1_cntrl1.respFrom.avg_stall_time 16590.193290                       # Average number of cycles messages are stalled in this MB
system.ruby.l1_cntrl1.respTo.avg_buf_msgs     0.000003                       # Average number of messages in buffer
system.ruby.l1_cntrl1.respTo.avg_stall_time   522.680875                       # Average number of cycles messages are stalled in this MB
system.ruby.l1_cntrl2.cache.demand_accesses            0                       # Number of cache demand accesses
system.ruby.l1_cntrl2.cache.demand_hits             0                       # Number of cache demand hits
system.ruby.l1_cntrl2.cache.demand_misses            0                       # Number of cache demand misses
system.ruby.l1_cntrl2.fully_busy_cycles             3                       # cycles for which number of transistions == max transitions
system.ruby.l1_cntrl2.fwdFrom.avg_buf_msgs     0.000439                       # Average number of messages in buffer
system.ruby.l1_cntrl2.fwdFrom.avg_stall_time  6485.514416                       # Average number of cycles messages are stalled in this MB
system.ruby.l1_cntrl2.mandatoryQueue.avg_buf_msgs     0.419977                       # Average number of messages in buffer
system.ruby.l1_cntrl2.mandatoryQueue.avg_stall_time  1040.987903                       # Average number of cycles messages are stalled in this MB
system.ruby.l1_cntrl2.reqTo.avg_buf_msgs     0.000890                       # Average number of messages in buffer
system.ruby.l1_cntrl2.reqTo.avg_stall_time   500.000110                       # Average number of cycles messages are stalled in this MB
system.ruby.l1_cntrl2.respFrom.avg_buf_msgs     0.000454                       # Average number of messages in buffer
system.ruby.l1_cntrl2.respFrom.avg_stall_time 16392.183190                       # Average number of cycles messages are stalled in this MB
system.ruby.l1_cntrl2.respTo.avg_buf_msgs     0.000004                       # Average number of messages in buffer
system.ruby.l1_cntrl2.respTo.avg_stall_time   512.287668                       # Average number of cycles messages are stalled in this MB
system.ruby.l1_cntrl3.cache.demand_accesses            0                       # Number of cache demand accesses
system.ruby.l1_cntrl3.cache.demand_hits             0                       # Number of cache demand hits
system.ruby.l1_cntrl3.cache.demand_misses            0                       # Number of cache demand misses
system.ruby.l1_cntrl3.fully_busy_cycles             1                       # cycles for which number of transistions == max transitions
system.ruby.l1_cntrl3.fwdFrom.avg_buf_msgs     0.000400                       # Average number of messages in buffer
system.ruby.l1_cntrl3.fwdFrom.avg_stall_time  6636.139932                       # Average number of cycles messages are stalled in this MB
system.ruby.l1_cntrl3.mandatoryQueue.avg_buf_msgs     0.427043                       # Average number of messages in buffer
system.ruby.l1_cntrl3.mandatoryQueue.avg_stall_time   997.993227                       # Average number of cycles messages are stalled in this MB
system.ruby.l1_cntrl3.reqTo.avg_buf_msgs     0.000808                       # Average number of messages in buffer
system.ruby.l1_cntrl3.reqTo.avg_stall_time   499.625146                       # Average number of cycles messages are stalled in this MB
system.ruby.l1_cntrl3.respFrom.avg_buf_msgs     0.000411                       # Average number of messages in buffer
system.ruby.l1_cntrl3.respFrom.avg_stall_time 16500.466251                       # Average number of cycles messages are stalled in this MB
system.ruby.l1_cntrl3.respTo.avg_buf_msgs     0.000004                       # Average number of messages in buffer
system.ruby.l1_cntrl3.respTo.avg_stall_time   525.237472                       # Average number of cycles messages are stalled in this MB
system.ruby.latency_hist_seqr::bucket_size            1                      
system.ruby.latency_hist_seqr::max_bucket            9                      
system.ruby.latency_hist_seqr::samples     1970539166                      
system.ruby.latency_hist_seqr            |  1970539166    100.00%    100.00% |           0      0.00%    100.00% |           0      0.00%    100.00% |           0      0.00%    100.00% |           0      0.00%    100.00% |           0      0.00%    100.00% |           0      0.00%    100.00% |           0      0.00%    100.00% |           0      0.00%    100.00% |           0      0.00%    100.00%
system.ruby.latency_hist_seqr::total       1970539166                      
system.ruby.miss_latency_hist_seqr::bucket_size            1                      
system.ruby.miss_latency_hist_seqr::max_bucket            9                      
system.ruby.miss_latency_hist_seqr::samples      2068991                      
system.ruby.miss_latency_hist_seqr       |     2068991    100.00%    100.00% |           0      0.00%    100.00% |           0      0.00%    100.00% |           0      0.00%    100.00% |           0      0.00%    100.00% |           0      0.00%    100.00% |           0      0.00%    100.00% |           0      0.00%    100.00% |           0      0.00%    100.00% |           0      0.00%    100.00%
system.ruby.miss_latency_hist_seqr::total      2068991                      
system.ruby.network.average_flit_latency    16.313581                      
system.ruby.network.average_flit_network_latency    11.552420                      
system.ruby.network.average_flit_queueing_latency     4.761161                      
system.ruby.network.average_flit_vnet_latency |   15.054317                       |    5.004098                       |    6.602164                      
system.ruby.network.average_flit_vqueue_latency |    6.028774                       |           6                       |    1.411917                      
system.ruby.network.average_hops             0.998341                      
system.ruby.network.average_packet_latency    14.049158                      
system.ruby.network.average_packet_network_latency    10.455216                      
system.ruby.network.average_packet_queueing_latency     3.593942                      
system.ruby.network.average_packet_vnet_latency |   24.947351                       |    5.004098                       |    5.733526                      
system.ruby.network.average_packet_vqueue_latency |    6.004213                       |           6                       |    1.168783                      
system.ruby.network.avg_link_utilization     0.044589                      
system.ruby.network.avg_vc_load          |    0.020280     45.48%     45.48% |    0.002293      5.14%     50.62% |    0.002270      5.09%     55.72% |    0.002267      5.08%     60.80% |    0.003948      8.86%     69.65% |    0.000442      0.99%     70.65% |    0.000439      0.99%     71.63% |    0.000439      0.99%     72.62% |    0.009137     20.49%     93.11% |    0.001036      2.32%     95.43% |    0.001018      2.28%     97.72% |    0.001019      2.28%    100.00%
system.ruby.network.avg_vc_load::total       0.044589                      
system.ruby.network.ext_in_link_utilization     17090111                      
system.ruby.network.ext_out_link_utilization     17090111                      
system.ruby.network.flit_network_latency |   156431278                       |    10104674                       |    30896191                      
system.ruby.network.flit_queueing_latency |    62645736                       |    12115680                       |     6607356                      
system.ruby.network.flits_injected       |    10391124     60.80%     60.80% |     2019280     11.82%     72.62% |     4679707     27.38%    100.00%
system.ruby.network.flits_injected::total     17090111                      
system.ruby.network.flits_received       |    10391124     60.80%     60.80% |     2019280     11.82%     72.62% |     4679707     27.38%    100.00%
system.ruby.network.flits_received::total     17090111                      
system.ruby.network.int_link_utilization     17061761                      
system.ruby.network.packet_network_latency |    52103939                       |    10104674                       |    23387689                      
system.ruby.network.packet_queueing_latency |    12540136                       |    12115680                       |     4767596                      
system.ruby.network.packets_injected     |     2088556     25.51%     25.51% |     2019280     24.66%     50.18% |     4079111     49.82%    100.00%
system.ruby.network.packets_injected::total      8186947                      
system.ruby.network.packets_received     |     2088556     25.51%     25.51% |     2019280     24.66%     50.18% |     4079111     49.82%    100.00%
system.ruby.network.packets_received::total      8186947                      
system.ruby.network.routers0.buffer_reads      9121623                      
system.ruby.network.routers0.buffer_writes      9121623                      
system.ruby.network.routers0.crossbar_activity      9121623                      
system.ruby.network.routers0.sw_input_arbiter_activity      9131464                      
system.ruby.network.routers0.sw_output_arbiter_activity      9121623                      
system.ruby.network.routers1.buffer_reads      8204903                      
system.ruby.network.routers1.buffer_writes      8204903                      
system.ruby.network.routers1.crossbar_activity      8204903                      
system.ruby.network.routers1.sw_input_arbiter_activity      8206942                      
system.ruby.network.routers1.sw_output_arbiter_activity      8204903                      
system.ruby.network.routers2.buffer_reads      8584485                      
system.ruby.network.routers2.buffer_writes      8584485                      
system.ruby.network.routers2.crossbar_activity      8584485                      
system.ruby.network.routers2.sw_input_arbiter_activity      8588401                      
system.ruby.network.routers2.sw_output_arbiter_activity      8584485                      
system.ruby.network.routers3.buffer_reads      8240861                      
system.ruby.network.routers3.buffer_writes      8240861                      
system.ruby.network.routers3.crossbar_activity      8240861                      
system.ruby.network.routers3.sw_input_arbiter_activity      8242943                      
system.ruby.network.routers3.sw_output_arbiter_activity      8240861                      
system.ruby.outstanding_req_hist_seqr::bucket_size            1                      
system.ruby.outstanding_req_hist_seqr::max_bucket            9                      
system.ruby.outstanding_req_hist_seqr::samples   1970539166                      
system.ruby.outstanding_req_hist_seqr::mean     1.002475                      
system.ruby.outstanding_req_hist_seqr::gmean     1.001717                      
system.ruby.outstanding_req_hist_seqr::stdev     0.049691                      
system.ruby.outstanding_req_hist_seqr    |           0      0.00%      0.00% |  1965661529     99.75%     99.75% |     4877637      0.25%    100.00% |           0      0.00%    100.00% |           0      0.00%    100.00% |           0      0.00%    100.00% |           0      0.00%    100.00% |           0      0.00%    100.00% |           0      0.00%    100.00% |           0      0.00%    100.00%
system.ruby.outstanding_req_hist_seqr::total   1970539166                      
system.switch_cpus0.Branches                  3636310                       # Number of branches fetched
system.switch_cpus0.committedInsts          269406681                       # Number of instructions committed
system.switch_cpus0.committedOps            454031366                       # Number of ops (including micro ops) committed
system.switch_cpus0.dtb.rdAccesses           85528359                       # TLB accesses on read requests
system.switch_cpus0.dtb.rdMisses                70793                       # TLB misses on read requests
system.switch_cpus0.dtb.wrAccesses           29207992                       # TLB accesses on write requests
system.switch_cpus0.dtb.wrMisses                 3820                       # TLB misses on write requests
system.switch_cpus0.idle_fraction            0.028577                       # Percentage of idle cycles
system.switch_cpus0.itb.rdAccesses                  0                       # TLB accesses on read requests
system.switch_cpus0.itb.rdMisses                    0                       # TLB misses on read requests
system.switch_cpus0.itb.wrAccesses          405870261                       # TLB accesses on write requests
system.switch_cpus0.itb.wrMisses                 3406                       # TLB misses on write requests
system.switch_cpus0.kern.inst.arm                   0                       # number of arm instructions executed
system.switch_cpus0.kern.inst.quiesce               0                       # number of quiesce instructions executed
system.switch_cpus0.not_idle_fraction        0.971423                       # Percentage of non-idle cycles
system.switch_cpus0.numCycles              1149182364                       # number of cpu cycles simulated
system.switch_cpus0.numWorkItemsCompleted            0                       # number of work items this cpu completed
system.switch_cpus0.numWorkItemsStarted             0                       # number of work items this cpu started
system.switch_cpus0.num_busy_cycles      1116342109.460293                       # Number of busy cycles
system.switch_cpus0.num_cc_register_reads    133865628                       # number of times the CC registers were read
system.switch_cpus0.num_cc_register_writes     90926549                       # number of times the CC registers were written
system.switch_cpus0.num_conditional_control_insts      3143533                       # number of instructions that are conditional controls
system.switch_cpus0.num_fp_alu_accesses     356664654                       # Number of float alu accesses
system.switch_cpus0.num_fp_insts            356664654                       # number of float instructions
system.switch_cpus0.num_fp_register_reads    436131440                       # number of times the floating registers were read
system.switch_cpus0.num_fp_register_writes    322139402                       # number of times the floating registers were written
system.switch_cpus0.num_func_calls             145638                       # number of times a function call or return occured
system.switch_cpus0.num_idle_cycles      32840254.539707                       # Number of idle cycles
system.switch_cpus0.num_int_alu_accesses    200181526                       # Number of integer alu accesses
system.switch_cpus0.num_int_insts           200181526                       # number of integer instructions
system.switch_cpus0.num_int_register_reads    489231413                       # number of times the integer registers were read
system.switch_cpus0.num_int_register_writes     91560271                       # number of times the integer registers were written
system.switch_cpus0.num_load_insts           84150241                       # Number of load instructions
system.switch_cpus0.num_mem_refs            113354470                       # number of memory refs
system.switch_cpus0.num_store_insts          29204229                       # Number of store instructions
system.switch_cpus0.num_vec_alu_accesses            0                       # Number of vector alu accesses
system.switch_cpus0.num_vec_insts                   0                       # number of vector instructions
system.switch_cpus0.num_vec_register_reads            0                       # number of times the vector registers were read
system.switch_cpus0.num_vec_register_writes            0                       # number of times the vector registers were written
system.switch_cpus0.op_class::No_OpClass       190953      0.04%      0.04% # Class of executed instruction
system.switch_cpus0.op_class::IntAlu        139079640     30.63%     30.67% # Class of executed instruction
system.switch_cpus0.op_class::IntMult           13397      0.00%     30.68% # Class of executed instruction
system.switch_cpus0.op_class::IntDiv            33188      0.01%     30.68% # Class of executed instruction
system.switch_cpus0.op_class::FloatAdd       94865006     20.89%     51.58% # Class of executed instruction
system.switch_cpus0.op_class::FloatCmp              0      0.00%     51.58% # Class of executed instruction
system.switch_cpus0.op_class::FloatCvt             96      0.00%     51.58% # Class of executed instruction
system.switch_cpus0.op_class::FloatMult             0      0.00%     51.58% # Class of executed instruction
system.switch_cpus0.op_class::FloatMultAcc            0      0.00%     51.58% # Class of executed instruction
system.switch_cpus0.op_class::FloatDiv              0      0.00%     51.58% # Class of executed instruction
system.switch_cpus0.op_class::FloatMisc             0      0.00%     51.58% # Class of executed instruction
system.switch_cpus0.op_class::FloatSqrt             0      0.00%     51.58% # Class of executed instruction
system.switch_cpus0.op_class::SimdAdd               0      0.00%     51.58% # Class of executed instruction
system.switch_cpus0.op_class::SimdAddAcc            0      0.00%     51.58% # Class of executed instruction
system.switch_cpus0.op_class::SimdAlu         3226398      0.71%     52.29% # Class of executed instruction
system.switch_cpus0.op_class::SimdCmp               0      0.00%     52.29% # Class of executed instruction
system.switch_cpus0.op_class::SimdCvt            2528      0.00%     52.29% # Class of executed instruction
system.switch_cpus0.op_class::SimdMisc        3399462      0.75%     53.04% # Class of executed instruction
system.switch_cpus0.op_class::SimdMult              0      0.00%     53.04% # Class of executed instruction
system.switch_cpus0.op_class::SimdMultAcc            0      0.00%     53.04% # Class of executed instruction
system.switch_cpus0.op_class::SimdShift             0      0.00%     53.04% # Class of executed instruction
system.switch_cpus0.op_class::SimdShiftAcc            0      0.00%     53.04% # Class of executed instruction
system.switch_cpus0.op_class::SimdDiv               0      0.00%     53.04% # Class of executed instruction
system.switch_cpus0.op_class::SimdSqrt              0      0.00%     53.04% # Class of executed instruction
system.switch_cpus0.op_class::SimdFloatAdd     23461963      5.17%     58.21% # Class of executed instruction
system.switch_cpus0.op_class::SimdFloatAlu            0      0.00%     58.21% # Class of executed instruction
system.switch_cpus0.op_class::SimdFloatCmp     18578432      4.09%     62.30% # Class of executed instruction
system.switch_cpus0.op_class::SimdFloatCvt      8191232      1.80%     64.10% # Class of executed instruction
system.switch_cpus0.op_class::SimdFloatDiv      2061316      0.45%     64.56% # Class of executed instruction
system.switch_cpus0.op_class::SimdFloatMisc            0      0.00%     64.56% # Class of executed instruction
system.switch_cpus0.op_class::SimdFloatMult     47411545     10.44%     75.00% # Class of executed instruction
system.switch_cpus0.op_class::SimdFloatMultAcc            0      0.00%     75.00% # Class of executed instruction
system.switch_cpus0.op_class::SimdFloatSqrt       161792      0.04%     75.03% # Class of executed instruction
system.switch_cpus0.op_class::SimdReduceAdd            0      0.00%     75.03% # Class of executed instruction
system.switch_cpus0.op_class::SimdReduceAlu            0      0.00%     75.03% # Class of executed instruction
system.switch_cpus0.op_class::SimdReduceCmp            0      0.00%     75.03% # Class of executed instruction
system.switch_cpus0.op_class::SimdFloatReduceAdd            0      0.00%     75.03% # Class of executed instruction
system.switch_cpus0.op_class::SimdFloatReduceCmp            0      0.00%     75.03% # Class of executed instruction
system.switch_cpus0.op_class::SimdAes               0      0.00%     75.03% # Class of executed instruction
system.switch_cpus0.op_class::SimdAesMix            0      0.00%     75.03% # Class of executed instruction
system.switch_cpus0.op_class::SimdSha1Hash            0      0.00%     75.03% # Class of executed instruction
system.switch_cpus0.op_class::SimdSha1Hash2            0      0.00%     75.03% # Class of executed instruction
system.switch_cpus0.op_class::SimdSha256Hash            0      0.00%     75.03% # Class of executed instruction
system.switch_cpus0.op_class::SimdSha256Hash2            0      0.00%     75.03% # Class of executed instruction
system.switch_cpus0.op_class::SimdShaSigma2            0      0.00%     75.03% # Class of executed instruction
system.switch_cpus0.op_class::SimdShaSigma3            0      0.00%     75.03% # Class of executed instruction
system.switch_cpus0.op_class::SimdPredAlu            0      0.00%     75.03% # Class of executed instruction
system.switch_cpus0.op_class::MemRead         8190253      1.80%     76.84% # Class of executed instruction
system.switch_cpus0.op_class::MemWrite        4729107      1.04%     77.88% # Class of executed instruction
system.switch_cpus0.op_class::FloatMemRead     75959988     16.73%     94.61% # Class of executed instruction
system.switch_cpus0.op_class::FloatMemWrite     24475122      5.39%    100.00% # Class of executed instruction
system.switch_cpus0.op_class::IprAccess             0      0.00%    100.00% # Class of executed instruction
system.switch_cpus0.op_class::InstPrefetch            0      0.00%    100.00% # Class of executed instruction
system.switch_cpus0.op_class::total         454031418                       # Class of executed instruction
system.switch_cpus1.Branches                  3529794                       # Number of branches fetched
system.switch_cpus1.committedInsts          257898182                       # Number of instructions committed
system.switch_cpus1.committedOps            433618635                       # Number of ops (including micro ops) committed
system.switch_cpus1.dtb.rdAccesses           80959032                       # TLB accesses on read requests
system.switch_cpus1.dtb.rdMisses                62665                       # TLB misses on read requests
system.switch_cpus1.dtb.wrAccesses           28335978                       # TLB accesses on write requests
system.switch_cpus1.dtb.wrMisses                 4214                       # TLB misses on write requests
system.switch_cpus1.idle_fraction            0.079224                       # Percentage of idle cycles
system.switch_cpus1.itb.rdAccesses                  0                       # TLB accesses on read requests
system.switch_cpus1.itb.rdMisses                    0                       # TLB misses on read requests
system.switch_cpus1.itb.wrAccesses          388821113                       # TLB accesses on write requests
system.switch_cpus1.itb.wrMisses                 3495                       # TLB misses on write requests
system.switch_cpus1.kern.inst.arm                   0                       # number of arm instructions executed
system.switch_cpus1.kern.inst.quiesce               0                       # number of quiesce instructions executed
system.switch_cpus1.not_idle_fraction        0.920776                       # Percentage of non-idle cycles
system.switch_cpus1.numCycles              1147544718                       # number of cpu cycles simulated
system.switch_cpus1.numWorkItemsCompleted            0                       # number of work items this cpu completed
system.switch_cpus1.numWorkItemsStarted             0                       # number of work items this cpu started
system.switch_cpus1.num_busy_cycles      1056631338.503154                       # Number of busy cycles
system.switch_cpus1.num_cc_register_reads    129099609                       # number of times the CC registers were read
system.switch_cpus1.num_cc_register_writes     88302113                       # number of times the CC registers were written
system.switch_cpus1.num_conditional_control_insts      3052856                       # number of instructions that are conditional controls
system.switch_cpus1.num_fp_alu_accesses     337271951                       # Number of float alu accesses
system.switch_cpus1.num_fp_insts            337271951                       # number of float instructions
system.switch_cpus1.num_fp_register_reads    413829401                       # number of times the floating registers were read
[...]
system.mem_ctrls1.llc.ReadReq_miss_latency::total   7526786123                       # number of ReadReq miss cycles
system.mem_ctrls1.llc.ReadReq_accesses::.ruby.dir_cntrl1       506857                       # number of ReadReq accesses(hits+misses)
system.mem_ctrls1.llc.ReadReq_accesses::total       506857                       # number of ReadReq accesses(hits+misses)
system.mem_ctrls1.llc.ReadReq_miss_rate::.ruby.dir_cntrl1     0.170417                       # miss rate for ReadReq accesses
system.mem_ctrls1.llc.ReadReq_miss_rate::total     0.170417                       # miss rate for ReadReq accesses
system.mem_ctrls1.llc.ReadReq_avg_miss_latency::.ruby.dir_cntrl1 87138.776792                       # average ReadReq miss latency
system.mem_ctrls1.llc.ReadReq_avg_miss_latency::total 87138.776792                       # average ReadReq miss latency
system.mem_ctrls1.llc.ReadReq_mshr_misses::.ruby.dir_cntrl1        86377                       # number of ReadReq MSHR misses
system.mem_ctrls1.llc.ReadReq_mshr_misses::total        86377                       # number of ReadReq MSHR misses
system.mem_ctrls1.llc.ReadReq_mshr_miss_latency::.ruby.dir_cntrl1   5757966373                       # number of ReadReq MSHR miss cycles
system.mem_ctrls1.llc.ReadReq_mshr_miss_latency::total   5757966373                       # number of ReadReq MSHR miss cycles
system.mem_ctrls1.llc.ReadReq_mshr_miss_rate::.ruby.dir_cntrl1     0.170417                       # mshr miss rate for ReadReq accesses
system.mem_ctrls1.llc.ReadReq_mshr_miss_rate::total     0.170417                       # mshr miss rate for ReadReq accesses
system.mem_ctrls1.llc.ReadReq_avg_mshr_miss_latency::.ruby.dir_cntrl1 66660.874689                       # average ReadReq mshr miss latency
system.mem_ctrls1.llc.ReadReq_avg_mshr_miss_latency::total 66660.874689                       # average ReadReq mshr miss latency
system.mem_ctrls1.llc.WriteReq_hits::.ruby.dir_cntrl1        37989                       # number of WriteReq hits
system.mem_ctrls1.llc.WriteReq_hits::total        37989                       # number of WriteReq hits
system.mem_ctrls1.llc.WriteReq_accesses::.ruby.dir_cntrl1        37989                       # number of WriteReq accesses(hits+misses)
system.mem_ctrls1.llc.WriteReq_accesses::total        37989                       # number of WriteReq accesses(hits+misses)
system.mem_ctrls1.llc.power_state.pwrStateResidencyTicks::UNDEFINED 114723438437001                       # Cumulative time (in ticks) in various power states
system.mem_ctrls1.llc.tags.tagsinuse     61646.710563                       # Cycle average of tags in use
system.mem_ctrls1.llc.tags.total_refs               0                       # Total number of references to valid blocks.
system.mem_ctrls1.llc.tags.sampled_refs             0                       # Sample count of references to valid blocks.
system.mem_ctrls1.llc.tags.avg_refs               nan                       # Average number of references to valid blocks.
system.mem_ctrls1.llc.tags.warmup_cycle  114148831595500                       # Cycle when the warmup percentage was hit.
system.mem_ctrls1.llc.tags.occ_blocks::.ruby.dir_cntrl1 61646.710563                       # Average occupied blocks per requestor
system.mem_ctrls1.llc.tags.occ_percent::.ruby.dir_cntrl1     0.235164                       # Average percentage of cache occupancy
system.mem_ctrls1.llc.tags.occ_percent::total     0.235164                       # Average percentage of cache occupancy
system.mem_ctrls1.llc.tags.occ_task_id_blocks::1024        86377                       # Occupied blocks per task id
system.mem_ctrls1.llc.tags.age_task_id_blocks_1024::0            8                       # Occupied blocks per task id
system.mem_ctrls1.llc.tags.age_task_id_blocks_1024::2           38                       # Occupied blocks per task id
system.mem_ctrls1.llc.tags.age_task_id_blocks_1024::3          124                       # Occupied blocks per task id
system.mem_ctrls1.llc.tags.age_task_id_blocks_1024::4        86207                       # Occupied blocks per task id
system.mem_ctrls1.llc.tags.occ_task_id_percent::1024     0.329502                       # Percentage of cache occupancy per task id
system.mem_ctrls1.llc.tags.tag_accesses       8803913                       # Number of tag accesses
system.mem_ctrls1.llc.tags.data_accesses       544846                       # Number of data accesses
system.mem_ctrls1.llc.tags.power_state.pwrStateResidencyTicks::UNDEFINED 114723438437001                       # Cumulative time (in ticks) in various power states
system.mem_ctrls1.rank1.actEnergy           266743260                       # Energy for activate commands per rank (pJ)
system.mem_ctrls1.rank1.preEnergy           141769815                       # Energy for precharge commands per rank (pJ)
system.mem_ctrls1.rank1.readEnergy          307362720                       # Energy for read commands per rank (pJ)
system.mem_ctrls1.rank1.writeEnergy                 0                       # Energy for write commands per rank (pJ)
system.mem_ctrls1.rank1.refreshEnergy    45358588080.000008                       # Energy for refresh commands per rank (pJ)
system.mem_ctrls1.rank1.actBackEnergy     59706094950                       # Energy for active background per rank (pJ)
system.mem_ctrls1.rank1.preBackEnergy    170369463840                       # Energy for precharge background per rank (pJ)
system.mem_ctrls1.rank1.actPowerDownEnergy            0                       # Energy for active power-down per rank (pJ)
system.mem_ctrls1.rank1.prePowerDownEnergy            0                       # Energy for precharge power-down per rank (pJ)
system.mem_ctrls1.rank1.selfRefreshEnergy            0                       # Energy for self refresh per rank (pJ)
system.mem_ctrls1.rank1.totalEnergy      276150022665                       # Total energy per rank (pJ)
system.mem_ctrls1.rank1.averagePower       480.589361                       # Core power per rank (mW)
system.mem_ctrls1.rank1.totalIdleTime               0                       # Total Idle time Per DRAM Rank
system.mem_ctrls1.rank1.memoryStateTime::IDLE 442284392251                       # Time in different power states
system.mem_ctrls1.rank1.memoryStateTime::REF  19187220000                       # Time in different power states
system.mem_ctrls1.rank1.memoryStateTime::SREF            0                       # Time in different power states
system.mem_ctrls1.rank1.memoryStateTime::PRE_PDN            0                       # Time in different power states
system.mem_ctrls1.rank1.memoryStateTime::ACT 113135412250                       # Time in different power states
system.mem_ctrls1.rank1.memoryStateTime::ACT_PDN            0                       # Time in different power states
system.mem_ctrls1.rank0.actEnergy           272605200                       # Energy for activate commands per rank (pJ)
system.mem_ctrls1.rank0.preEnergy           144889305                       # Energy for precharge commands per rank (pJ)
system.mem_ctrls1.rank0.readEnergy          309369060                       # Energy for read commands per rank (pJ)
system.mem_ctrls1.rank0.writeEnergy                 0                       # Energy for write commands per rank (pJ)
system.mem_ctrls1.rank0.refreshEnergy    45358588080.000008                       # Energy for refresh commands per rank (pJ)
system.mem_ctrls1.rank0.actBackEnergy     60902295810                       # Energy for active background per rank (pJ)
system.mem_ctrls1.rank0.preBackEnergy    169362903360                       # Energy for precharge background per rank (pJ)
system.mem_ctrls1.rank0.actPowerDownEnergy            0                       # Energy for active power-down per rank (pJ)
system.mem_ctrls1.rank0.prePowerDownEnergy            0                       # Energy for precharge power-down per rank (pJ)
system.mem_ctrls1.rank0.selfRefreshEnergy            0                       # Energy for self refresh per rank (pJ)
system.mem_ctrls1.rank0.totalEnergy      276350650815                       # Total energy per rank (pJ)
system.mem_ctrls1.rank0.averagePower       480.938518                       # Core power per rank (mW)
system.mem_ctrls1.rank0.totalIdleTime               0                       # Total Idle time Per DRAM Rank
system.mem_ctrls1.rank0.memoryStateTime::IDLE 439652722252                       # Time in different power states
system.mem_ctrls1.rank0.memoryStateTime::REF  19187220000                       # Time in different power states
system.mem_ctrls1.rank0.memoryStateTime::SREF            0                       # Time in different power states
system.mem_ctrls1.rank0.memoryStateTime::PRE_PDN            0                       # Time in different power states
system.mem_ctrls1.rank0.memoryStateTime::ACT 115767082249                       # Time in different power states
system.mem_ctrls1.rank0.memoryStateTime::ACT_PDN            0                       # Time in different power states
system.mem_ctrls1.power_state.pwrStateResidencyTicks::UNDEFINED 114723438437001                       # Cumulative time (in ticks) in various power states
system.cpu_voltage_domain.voltage                   1                       # Voltage in Volts
system.iobus.trans_dist::ReadReq                  563                       # Transaction distribution
system.iobus.trans_dist::ReadResp                 563                       # Transaction distribution
system.iobus.trans_dist::WriteReq                2818                       # Transaction distribution
system.iobus.trans_dist::WriteResp               2818                       # Transaction distribution
system.iobus.pkt_count_system.pc.south_bridge.io_apic.int_master::system.ruby.l1_cntrl1.sequencer.pio-slave-port          360                       # Packet count per connected master and slave (bytes)
system.iobus.pkt_count_system.pc.south_bridge.io_apic.int_master::total          360                       # Packet count per connected master and slave (bytes)
system.iobus.pkt_count_system.ruby.l1_cntrl0.sequencer.mem-master-port::system.ruby.l1_cntrl0.sequencer.pio-slave-port         1184                       # Packet count per connected master and slave (bytes)
system.iobus.pkt_count_system.ruby.l1_cntrl0.sequencer.mem-master-port::system.ruby.l1_cntrl1.sequencer.pio-slave-port            4                       # Packet count per connected master and slave (bytes)
system.iobus.pkt_count_system.ruby.l1_cntrl0.sequencer.mem-master-port::system.ruby.l1_cntrl2.sequencer.pio-slave-port            4                       # Packet count per connected master and slave (bytes)
system.iobus.pkt_count_system.ruby.l1_cntrl0.sequencer.mem-master-port::total         1192                       # Packet count per connected master and slave (bytes)
system.iobus.pkt_count_system.ruby.l1_cntrl1.sequencer.mem-master-port::system.pc.south_bridge.ide.pio           24                       # Packet count per connected master and slave (bytes)
system.iobus.pkt_count_system.ruby.l1_cntrl1.sequencer.mem-master-port::system.pc.com_1.pio         1436                       # Packet count per connected master and slave (bytes)
system.iobus.pkt_count_system.ruby.l1_cntrl1.sequencer.mem-master-port::system.ruby.l1_cntrl1.sequencer.pio-slave-port         1234                       # Packet count per connected master and slave (bytes)
system.iobus.pkt_count_system.ruby.l1_cntrl1.sequencer.mem-master-port::system.ruby.l1_cntrl2.sequencer.pio-slave-port            6                       # Packet count per connected master and slave (bytes)
system.iobus.pkt_count_system.ruby.l1_cntrl1.sequencer.mem-master-port::total         2700                       # Packet count per connected master and slave (bytes)
system.iobus.pkt_count_system.ruby.l1_cntrl2.sequencer.mem-master-port::system.pc.south_bridge.ide.pio           68                       # Packet count per connected master and slave (bytes)
system.iobus.pkt_count_system.ruby.l1_cntrl2.sequencer.mem-master-port::system.ruby.l1_cntrl0.sequencer.pio-slave-port           10                       # Packet count per connected master and slave (bytes)
system.iobus.pkt_count_system.ruby.l1_cntrl2.sequencer.mem-master-port::system.ruby.l1_cntrl1.sequencer.pio-slave-port            8                       # Packet count per connected master and slave (bytes)
system.iobus.pkt_count_system.ruby.l1_cntrl2.sequencer.mem-master-port::system.ruby.l1_cntrl2.sequencer.pio-slave-port         1250                       # Packet count per connected master and slave (bytes)
system.iobus.pkt_count_system.ruby.l1_cntrl2.sequencer.mem-master-port::system.ruby.l1_cntrl3.sequencer.pio-slave-port           12                       # Packet count per connected master and slave (bytes)
system.iobus.pkt_count_system.ruby.l1_cntrl2.sequencer.mem-master-port::total         1348                       # Packet count per connected master and slave (bytes)
system.iobus.pkt_count_system.ruby.l1_cntrl3.sequencer.mem-master-port::system.ruby.l1_cntrl3.sequencer.pio-slave-port         1162                       # Packet count per connected master and slave (bytes)
system.iobus.pkt_count_system.ruby.l1_cntrl3.sequencer.mem-master-port::total         1162                       # Packet count per connected master and slave (bytes)
system.iobus.pkt_count::total                    6762                       # Packet count per connected master and slave (bytes)
system.iobus.pkt_size_system.pc.south_bridge.io_apic.int_master::system.ruby.l1_cntrl1.sequencer.pio-slave-port          720                       # Cumulative packet size per connected master and slave (bytes)
system.iobus.pkt_size_system.pc.south_bridge.io_apic.int_master::total          720                       # Cumulative packet size per connected master and slave (bytes)
system.iobus.pkt_size_system.ruby.l1_cntrl0.sequencer.mem-master-port::system.ruby.l1_cntrl0.sequencer.pio-slave-port         2368                       # Cumulative packet size per connected master and slave (bytes)
system.iobus.pkt_size_system.ruby.l1_cntrl0.sequencer.mem-master-port::system.ruby.l1_cntrl1.sequencer.pio-slave-port            8                       # Cumulative packet size per connected master and slave (bytes)
system.iobus.pkt_size_system.ruby.l1_cntrl0.sequencer.mem-master-port::system.ruby.l1_cntrl2.sequencer.pio-slave-port            8                       # Cumulative packet size per connected master and slave (bytes)
system.iobus.pkt_size_system.ruby.l1_cntrl0.sequencer.mem-master-port::total         2384                       # Cumulative packet size per connected master and slave (bytes)
system.iobus.pkt_size_system.ruby.l1_cntrl1.sequencer.mem-master-port::system.pc.south_bridge.ide.pio           12                       # Cumulative packet size per connected master and slave (bytes)
system.iobus.pkt_size_system.ruby.l1_cntrl1.sequencer.mem-master-port::system.pc.com_1.pio          718                       # Cumulative packet size per connected master and slave (bytes)
system.iobus.pkt_size_system.ruby.l1_cntrl1.sequencer.mem-master-port::system.ruby.l1_cntrl1.sequencer.pio-slave-port         2468                       # Cumulative packet size per connected master and slave (bytes)
system.iobus.pkt_size_system.ruby.l1_cntrl1.sequencer.mem-master-port::system.ruby.l1_cntrl2.sequencer.pio-slave-port           12                       # Cumulative packet size per connected master and slave (bytes)
system.iobus.pkt_size_system.ruby.l1_cntrl1.sequencer.mem-master-port::total         3210                       # Cumulative packet size per connected master and slave (bytes)
system.iobus.pkt_size_system.ruby.l1_cntrl2.sequencer.mem-master-port::system.pc.south_bridge.ide.pio           40                       # Cumulative packet size per connected master and slave (bytes)
system.iobus.pkt_size_system.ruby.l1_cntrl2.sequencer.mem-master-port::system.ruby.l1_cntrl0.sequencer.pio-slave-port           20                       # Cumulative packet size per connected master and slave (bytes)
system.iobus.pkt_size_system.ruby.l1_cntrl2.sequencer.mem-master-port::system.ruby.l1_cntrl1.sequencer.pio-slave-port           16                       # Cumulative packet size per connected master and slave (bytes)
system.iobus.pkt_size_system.ruby.l1_cntrl2.sequencer.mem-master-port::system.ruby.l1_cntrl2.sequencer.pio-slave-port         2500                       # Cumulative packet size per connected master and slave (bytes)
system.iobus.pkt_size_system.ruby.l1_cntrl2.sequencer.mem-master-port::system.ruby.l1_cntrl3.sequencer.pio-slave-port           24                       # Cumulative packet size per connected master and slave (bytes)
system.iobus.pkt_size_system.ruby.l1_cntrl2.sequencer.mem-master-port::total         2600                       # Cumulative packet size per connected master and slave (bytes)
system.iobus.pkt_size_system.ruby.l1_cntrl3.sequencer.mem-master-port::system.ruby.l1_cntrl3.sequencer.pio-slave-port         2324                       # Cumulative packet size per connected master and slave (bytes)
system.iobus.pkt_size_system.ruby.l1_cntrl3.sequencer.mem-master-port::total         2324                       # Cumulative packet size per connected master and slave (bytes)
system.iobus.pkt_size::total                    11238                       # Cumulative packet size per connected master and slave (bytes)
system.iobus.reqLayer2.occupancy                76500                       # Layer occupancy (ticks)
system.iobus.reqLayer2.utilization                0.0                       # Layer utilization (%)
system.iobus.power_state.pwrStateResidencyTicks::UNDEFINED 114723438437001                       # Cumulative time (in ticks) in various power states
system.iobus.reqLayer19.occupancy             1509478                       # Layer occupancy (ticks)
system.iobus.reqLayer19.utilization               0.0                       # Layer utilization (%)
system.iobus.reqLayer17.occupancy             1477433                       # Layer occupancy (ticks)
system.iobus.reqLayer17.utilization               0.0                       # Layer utilization (%)
system.iobus.reqLayer12.occupancy              913500                       # Layer occupancy (ticks)
system.iobus.reqLayer12.utilization               0.0                       # Layer utilization (%)
system.iobus.reqLayer18.occupancy             1877458                       # Layer occupancy (ticks)
system.iobus.reqLayer18.utilization               0.0                       # Layer utilization (%)
system.iobus.respLayer9.occupancy              871500                       # Layer occupancy (ticks)
system.iobus.respLayer9.utilization               0.0                       # Layer utilization (%)
system.iobus.respLayer5.occupancy             2195500                       # Layer occupancy (ticks)
system.iobus.respLayer5.utilization               0.0                       # Layer utilization (%)
system.iobus.respLayer7.occupancy             1009500                       # Layer occupancy (ticks)
system.iobus.respLayer7.utilization               0.0                       # Layer utilization (%)
system.iobus.respLayer0.occupancy              270998                       # Layer occupancy (ticks)
system.iobus.respLayer0.utilization               0.0                       # Layer utilization (%)
system.iobus.respLayer3.occupancy              895000                       # Layer occupancy (ticks)
system.iobus.respLayer3.utilization               0.0                       # Layer utilization (%)
system.iobus.reqLayer20.occupancy             1436982                       # Layer occupancy (ticks)
system.iobus.reqLayer20.utilization               0.0                       # Layer utilization (%)

---------- End Simulation Statistics   ----------
