
---------- Begin Simulation Statistics ----------
final_tick                               103831581688001                       # Number of ticks from beginning of simulation (restored from checkpoints and never reset)
host_inst_rate                                 655981                       # Simulator instruction rate (inst/s)
host_mem_usage                                1961928                       # Number of bytes of host memory used
host_op_rate                                   863999                       # Simulator op (including micro ops) rate (op/s)
host_seconds                                 13337.60                       # Real time elapsed on the host
host_tick_rate                              162795794                       # Simulator tick rate (ticks/s)
sim_freq                                 1000000000000                       # Frequency of simulated ticks
sim_insts                                  8749205473                       # Number of instructions simulated
sim_ops                                   11523666267                       # Number of ops (including micro ops) simulated
sim_seconds                                  2.171305                       # Number of seconds simulated
sim_ticks                                2171304784001                       # Number of ticks simulated
system.cpu0.committedInsts                          0                       # Number of instructions committed
system.cpu0.dtb.rdAccesses                          0                       # TLB accesses on read requests
system.cpu0.dtb.rdMisses                            0                       # TLB misses on read requests
system.cpu0.dtb.wrAccesses                          0                       # TLB accesses on write requests
system.cpu0.dtb.wrMisses                            0                       # TLB misses on write requests
system.cpu0.itb.rdAccesses                          0                       # TLB accesses on read requests
system.cpu0.itb.rdMisses                            0                       # TLB misses on read requests
system.cpu0.itb.wrAccesses                          0                       # TLB accesses on write requests
system.cpu0.itb.wrMisses                            0                       # TLB misses on write requests
system.cpu0.kern.inst.arm                           0                       # number of arm instructions executed
system.cpu0.kern.inst.quiesce                       0                       # number of quiesce instructions executed
system.cpu0.numCoalescedMMIO                        0                       # number of coalesced memory mapped IO requests
system.cpu0.numCycles                               0                       # number of cpu cycles simulated
system.cpu0.numExitSignal                           0                       # exits due to signal delivery
system.cpu0.numHalt                                 0                       # number of VM exits due to wait for interrupt instructions
system.cpu0.numHypercalls                           0                       # number of hypercalls
system.cpu0.numIO                                   0                       # number of VM exits due to legacy IO
system.cpu0.numInterrupts                           0                       # number of interrupts delivered
system.cpu0.numMMIO                                 0                       # number of VM exits due to memory mapped IO
system.cpu0.numVMExits                              0                       # total number of KVM exits
system.cpu0.numVMHalfEntries                        0                       # number of KVM entries to finalize pending operations
system.cpu0.numWorkItemsCompleted                   0                       # number of work items this cpu completed
system.cpu0.numWorkItemsStarted                     0                       # number of work items this cpu started
system.cpu1.committedInsts                          0                       # Number of instructions committed
system.cpu1.dtb.rdAccesses                          0                       # TLB accesses on read requests
system.cpu1.dtb.rdMisses                            0                       # TLB misses on read requests
system.cpu1.dtb.wrAccesses                          0                       # TLB accesses on write requests
system.cpu1.dtb.wrMisses                            0                       # TLB misses on write requests
system.cpu1.itb.rdAccesses                          0                       # TLB accesses on read requests
system.cpu1.itb.rdMisses                            0                       # TLB misses on read requests
system.cpu1.itb.wrAccesses                          0                       # TLB accesses on write requests
system.cpu1.itb.wrMisses                            0                       # TLB misses on write requests
system.cpu1.kern.inst.arm                           0                       # number of arm instructions executed
system.cpu1.kern.inst.quiesce                       0                       # number of quiesce instructions executed
system.cpu1.numCoalescedMMIO                        0                       # number of coalesced memory mapped IO requests
system.cpu1.numCycles                               0                       # number of cpu cycles simulated
system.cpu1.numExitSignal                           0                       # exits due to signal delivery
system.cpu1.numHalt                                 0                       # number of VM exits due to wait for interrupt instructions
system.cpu1.numHypercalls                           0                       # number of hypercalls
system.cpu1.numIO                                   0                       # number of VM exits due to legacy IO
system.cpu1.numInterrupts                           0                       # number of interrupts delivered
system.cpu1.numMMIO                                 0                       # number of VM exits due to memory mapped IO
system.cpu1.numVMExits                              0                       # total number of KVM exits
system.cpu1.numVMHalfEntries                        0                       # number of KVM entries to finalize pending operations
system.cpu1.numWorkItemsCompleted                   0                       # number of work items this cpu completed
system.cpu1.numWorkItemsStarted                     0                       # number of work items this cpu started
system.cpu2.committedInsts                          0                       # Number of instructions committed
system.cpu2.dtb.rdAccesses                          0                       # TLB accesses on read requests
system.cpu2.dtb.rdMisses                            0                       # TLB misses on read requests
system.cpu2.dtb.wrAccesses                          0                       # TLB accesses on write requests
system.cpu2.dtb.wrMisses                            0                       # TLB misses on write requests
system.cpu2.itb.rdAccesses                          0                       # TLB accesses on read requests
system.cpu2.itb.rdMisses                            0                       # TLB misses on read requests
system.cpu2.itb.wrAccesses                          0                       # TLB accesses on write requests
system.cpu2.itb.wrMisses                            0                       # TLB misses on write requests
system.cpu2.kern.inst.arm                           0                       # number of arm instructions executed
system.cpu2.kern.inst.quiesce                       0                       # number of quiesce instructions executed
system.cpu2.numCoalescedMMIO                        0                       # number of coalesced memory mapped IO requests
system.cpu2.numCycles                               0                       # number of cpu cycles simulated
system.cpu2.numExitSignal                           0                       # exits due to signal delivery
system.cpu2.numHalt                                 0                       # number of VM exits due to wait for interrupt instructions
system.cpu2.numHypercalls                           0                       # number of hypercalls
system.cpu2.numIO                                   0                       # number of VM exits due to legacy IO
system.cpu2.numInterrupts                           0                       # number of interrupts delivered
system.cpu2.numMMIO                                 0                       # number of VM exits due to memory mapped IO
system.cpu2.numVMExits                              0                       # total number of KVM exits
system.cpu2.numVMHalfEntries                        0                       # number of KVM entries to finalize pending operations
system.cpu2.numWorkItemsCompleted                   0                       # number of work items this cpu completed
system.cpu2.numWorkItemsStarted                     0                       # number of work items this cpu started
system.cpu3.committedInsts                          0                       # Number of instructions committed
system.cpu3.dtb.rdAccesses                          0                       # TLB accesses on read requests
system.cpu3.dtb.rdMisses                            0                       # TLB misses on read requests
system.cpu3.dtb.wrAccesses                          0                       # TLB accesses on write requests
system.cpu3.dtb.wrMisses                            0                       # TLB misses on write requests
system.cpu3.itb.rdAccesses                          0                       # TLB accesses on read requests
system.cpu3.itb.rdMisses                            0                       # TLB misses on read requests
system.cpu3.itb.wrAccesses                          0                       # TLB accesses on write requests
system.cpu3.itb.wrMisses                            0                       # TLB misses on write requests
system.cpu3.kern.inst.arm                           0                       # number of arm instructions executed
system.cpu3.kern.inst.quiesce                       0                       # number of quiesce instructions executed
system.cpu3.numCoalescedMMIO                        0                       # number of coalesced memory mapped IO requests
system.cpu3.numCycles                               0                       # number of cpu cycles simulated
system.cpu3.numExitSignal                           0                       # exits due to signal delivery
system.cpu3.numHalt                                 0                       # number of VM exits due to wait for interrupt instructions
system.cpu3.numHypercalls                           0                       # number of hypercalls
system.cpu3.numIO                                   0                       # number of VM exits due to legacy IO
system.cpu3.numInterrupts                           0                       # number of interrupts delivered
system.cpu3.numMMIO                                 0                       # number of VM exits due to memory mapped IO
system.cpu3.numVMExits                              0                       # total number of KVM exits
system.cpu3.numVMHalfEntries                        0                       # number of KVM entries to finalize pending operations
system.cpu3.numWorkItemsCompleted                   0                       # number of work items this cpu completed
system.cpu3.numWorkItemsStarted                     0                       # number of work items this cpu started
system.pc.south_bridge.ide.disks.dma_read_bytes       258048                       # Number of bytes transfered via DMA reads (not PRD).
system.pc.south_bridge.ide.disks.dma_read_full_pages           63                       # Number of full page size DMA reads (not PRD).
system.pc.south_bridge.ide.disks.dma_read_txs           63                       # Number of DMA read transactions (not PRD).
system.pc.south_bridge.ide.disks.dma_write_bytes      2498560                       # Number of bytes transfered via DMA writes.
system.pc.south_bridge.ide.disks.dma_write_full_pages          610                       # Number of full page size DMA writes.
system.pc.south_bridge.ide.disks.dma_write_txs          610                       # Number of DMA write transactions.
system.ruby.DMA_Controller.I.allocI_load |        4070    100.00%    100.00% |           0      0.00%    100.00%
system.ruby.DMA_Controller.I.allocI_load::total         4070                      
system.ruby.DMA_Controller.I.allocI_store |       39040    100.00%    100.00% |           0      0.00%    100.00%
system.ruby.DMA_Controller.I.allocI_store::total        39040                      
system.ruby.DMA_Controller.I.deallocfwdfrom_in |       42086    100.00%    100.00% |           0      0.00%    100.00%
system.ruby.DMA_Controller.I.deallocfwdfrom_in::total        42086                      
system.ruby.DMA_Controller.M.allocTBE    |       38043    100.00%    100.00% |           0      0.00%    100.00%
system.ruby.DMA_Controller.M.allocTBE::total        38043                      
system.ruby.DMA_Controller.M.externalstoreMrespfrom_in |       39040    100.00%    100.00% |           0      0.00%    100.00%
system.ruby.DMA_Controller.M.externalstoreMrespfrom_in::total        39040                      
system.ruby.DMA_Controller.M_evict.Stallmandatory_in |      563112    100.00%    100.00% |           0      0.00%    100.00%
system.ruby.DMA_Controller.M_evict.Stallmandatory_in::total       563112                      
system.ruby.DMA_Controller.S.SloadSEvent |         108    100.00%    100.00% |           0      0.00%    100.00%
system.ruby.DMA_Controller.S.SloadSEvent::total          108                      
system.ruby.DMA_Controller.S.allocTBE    |        4284    100.00%    100.00% |           0      0.00%    100.00%
system.ruby.DMA_Controller.S.allocTBE::total         4284                      
system.ruby.DMA_Controller.S.deallocTBE  |         241    100.00%    100.00% |           0      0.00%    100.00%
system.ruby.DMA_Controller.S.deallocTBE::total          241                      
system.ruby.DMA_Controller.S.externalloadSrespfrom_in |        4070    100.00%    100.00% |           0      0.00%    100.00%
system.ruby.DMA_Controller.S.externalloadSrespfrom_in::total         4070                      
system.ruby.DMA_Controller.S_evict.Stallmandatory_in |       13866    100.00%    100.00% |           0      0.00%    100.00%
system.ruby.DMA_Controller.S_evict.Stallmandatory_in::total        13866                      
system.ruby.DMA_Controller.SloadSEvent   |         108    100.00%    100.00% |           0      0.00%    100.00%
system.ruby.DMA_Controller.SloadSEvent::total          108                      
system.ruby.DMA_Controller.Stallmandatory_in |      576978    100.00%    100.00% |           0      0.00%    100.00%
system.ruby.DMA_Controller.Stallmandatory_in::total       576978                      
system.ruby.DMA_Controller.allocI_load   |        4070    100.00%    100.00% |           0      0.00%    100.00%
system.ruby.DMA_Controller.allocI_load::total         4070                      
system.ruby.DMA_Controller.allocI_store  |       39040    100.00%    100.00% |           0      0.00%    100.00%
system.ruby.DMA_Controller.allocI_store::total        39040                      
system.ruby.DMA_Controller.allocTBE      |       42327    100.00%    100.00% |           0      0.00%    100.00%
system.ruby.DMA_Controller.allocTBE::total        42327                      
system.ruby.DMA_Controller.deallocTBE    |         241    100.00%    100.00% |           0      0.00%    100.00%
system.ruby.DMA_Controller.deallocTBE::total          241                      
system.ruby.DMA_Controller.deallocfwdfrom_in |       42086    100.00%    100.00% |           0      0.00%    100.00%
system.ruby.DMA_Controller.deallocfwdfrom_in::total        42086                      
system.ruby.DMA_Controller.externalloadSrespfrom_in |        4070    100.00%    100.00% |           0      0.00%    100.00%
system.ruby.DMA_Controller.externalloadSrespfrom_in::total         4070                      
system.ruby.DMA_Controller.externalstoreMrespfrom_in |       39040    100.00%    100.00% |           0      0.00%    100.00%
system.ruby.DMA_Controller.externalstoreMrespfrom_in::total        39040                      
system.ruby.Directory_Controller.I.allocTBE |     5308721     25.28%     25.28% |     5223467     24.88%     50.16% |     5194688     24.74%     74.90% |     5269813     25.10%    100.00%
system.ruby.Directory_Controller.I.allocTBE::total     20996689                      
system.ruby.Directory_Controller.I.deallocTBE |     5307746     25.28%     25.28% |     5222527     24.88%     50.16% |     5193762     24.74%     74.90% |     5268868     25.10%    100.00%
system.ruby.Directory_Controller.I.deallocTBE::total     20992903                      
system.ruby.Directory_Controller.I_GetSL1C1C1_0.Stallreqto_in |         153     21.70%     21.70% |         322     45.67%     67.38% |         120     17.02%     84.40% |         110     15.60%    100.00%
system.ruby.Directory_Controller.I_GetSL1C1C1_0.Stallreqto_in::total          705                      
system.ruby.Directory_Controller.M.allocTBE |     1925352     24.96%     24.96% |     1929821     25.02%     49.98% |     1927419     24.99%     74.97% |     1930506     25.03%    100.00%
system.ruby.Directory_Controller.M.allocTBE::total      7713098                      
system.ruby.Directory_Controller.M.deallocTBE |     1925810     24.96%     24.96% |     1930288     25.02%     49.98% |     1927891     24.99%     74.97% |     1930955     25.03%    100.00%
system.ruby.Directory_Controller.M.deallocTBE::total      7714944                      
system.ruby.Directory_Controller.M_GetM.Progress |         627     17.18%     17.18% |         717     19.65%     36.83% |        1463     40.09%     76.93% |         842     23.07%    100.00%
system.ruby.Directory_Controller.M_GetM.Progress::total         3649                      
system.ruby.Directory_Controller.M_GetM.Stallreqto_in |           0      0.00%      0.00% |           1    100.00%    100.00% |           0      0.00%    100.00% |           0      0.00%    100.00%
system.ruby.Directory_Controller.M_GetM.Stallreqto_in::total            1                      
system.ruby.Directory_Controller.M_GetS.Progress |        5381     35.64%     35.64% |        3329     22.05%     57.69% |        3527     23.36%     81.05% |        2862     18.95%    100.00%
system.ruby.Directory_Controller.M_GetS.Progress::total        15099                      
system.ruby.Directory_Controller.M_GetS.Stallreqto_in |           2      8.33%      8.33% |           4     16.67%     25.00% |          16     66.67%     91.67% |           2      8.33%    100.00%
system.ruby.Directory_Controller.M_GetS.Stallreqto_in::total           24                      
system.ruby.Directory_Controller.M_GetS_WBL1C1C1_0.Stallreqto_in |          81     21.37%     21.37% |          36      9.50%     30.87% |         138     36.41%     67.28% |         124     32.72%    100.00%
system.ruby.Directory_Controller.M_GetS_WBL1C1C1_0.Stallreqto_in::total          379                      
system.ruby.Directory_Controller.M_PutML1C1C1_0.Stallreqto_in |           1    100.00%    100.00% |           0      0.00%    100.00% |           0      0.00%    100.00% |           0      0.00%    100.00%
system.ruby.Directory_Controller.M_PutML1C1C1_0.Stallreqto_in::total            1                      
system.ruby.Directory_Controller.Progress |       10402     34.62%     34.62% |        6191     20.61%     55.23% |        7207     23.99%     79.21% |        6246     20.79%    100.00%
system.ruby.Directory_Controller.Progress::total        30046                      
system.ruby.Directory_Controller.S.allocTBE |     5164795     25.39%     25.39% |     5066989     24.91%     50.29% |     5092819     25.03%     75.33% |     5019101     24.67%    100.00%
system.ruby.Directory_Controller.S.allocTBE::total     20343704                      
system.ruby.Directory_Controller.S.deallocTBE |     5165312     25.39%     25.39% |     5067462     24.91%     50.29% |     5093273     25.03%     75.33% |     5019597     24.67%    100.00%
system.ruby.Directory_Controller.S.deallocTBE::total     20345644                      
system.ruby.Directory_Controller.S_GetM.Progress |        4394     38.89%     38.89% |        2145     18.99%     57.88% |        2217     19.62%     77.50% |        2542     22.50%    100.00%
system.ruby.Directory_Controller.S_GetM.Progress::total        11298                      
system.ruby.Directory_Controller.S_GetM.Stallreqto_in |          15     31.91%     31.91% |           8     17.02%     48.94% |          16     34.04%     82.98% |           8     17.02%    100.00%
system.ruby.Directory_Controller.S_GetM.Stallreqto_in::total           47                      
system.ruby.Directory_Controller.S_GetM.allocTBE |        6872     34.26%     34.26% |        4679     23.33%     57.59% |        4335     21.61%     79.20% |        4171     20.80%    100.00%
system.ruby.Directory_Controller.S_GetM.allocTBE::total        20057                      
system.ruby.Directory_Controller.S_GetM.deallocTBE |        6872     34.26%     34.26% |        4679     23.33%     57.59% |        4335     21.61%     79.20% |        4171     20.80%    100.00%
system.ruby.Directory_Controller.S_GetM.deallocTBE::total        20057                      
system.ruby.Directory_Controller.S_GetML1C1C1_0.Stallreqto_in |          13     35.14%     35.14% |           7     18.92%     54.05% |          13     35.14%     89.19% |           4     10.81%    100.00%
system.ruby.Directory_Controller.S_GetML1C1C1_0.Stallreqto_in::total           37                      
system.ruby.Directory_Controller.S_GetSL1C1C1_0.Stallreqto_in |         377     30.45%     30.45% |         357     28.84%     59.29% |         247     19.95%     79.24% |         257     20.76%    100.00%
system.ruby.Directory_Controller.S_GetSL1C1C1_0.Stallreqto_in::total         1238                      
system.ruby.Directory_Controller.Stallreqto_in |         642     26.40%     26.40% |         735     30.22%     56.62% |         550     22.62%     79.24% |         505     20.76%    100.00%
system.ruby.Directory_Controller.Stallreqto_in::total         2432                      
system.ruby.Directory_Controller.allocTBE |    12405740     25.28%     25.28% |    12224956     24.91%     50.19% |    12219261     24.90%     75.09% |    12223591     24.91%    100.00%
system.ruby.Directory_Controller.allocTBE::total     49073548                      
system.ruby.Directory_Controller.deallocTBE |    12405740     25.28%     25.28% |    12224956     24.91%     50.19% |    12219261     24.90%     75.09% |    12223591     24.91%    100.00%
system.ruby.Directory_Controller.deallocTBE::total     49073548                      
system.ruby.IFETCH.hit_latency_hist_seqr::bucket_size            1                      
system.ruby.IFETCH.hit_latency_hist_seqr::max_bucket            9                      
system.ruby.IFETCH.hit_latency_hist_seqr::samples   5251860641                      
system.ruby.IFETCH.hit_latency_hist_seqr |  5251860641    100.00%    100.00% |           0      0.00%    100.00% |           0      0.00%    100.00% |           0      0.00%    100.00% |           0      0.00%    100.00% |           0      0.00%    100.00% |           0      0.00%    100.00% |           0      0.00%    100.00% |           0      0.00%    100.00% |           0      0.00%    100.00%
system.ruby.IFETCH.hit_latency_hist_seqr::total   5251860641                      
system.ruby.IFETCH.latency_hist_seqr::bucket_size            1                      
system.ruby.IFETCH.latency_hist_seqr::max_bucket            9                      
system.ruby.IFETCH.latency_hist_seqr::samples   5255115382                      
system.ruby.IFETCH.latency_hist_seqr     |  5255115382    100.00%    100.00% |           0      0.00%    100.00% |           0      0.00%    100.00% |           0      0.00%    100.00% |           0      0.00%    100.00% |           0      0.00%    100.00% |           0      0.00%    100.00% |           0      0.00%    100.00% |           0      0.00%    100.00% |           0      0.00%    100.00%
system.ruby.IFETCH.latency_hist_seqr::total   5255115382                      
system.ruby.IFETCH.miss_latency_hist_seqr::bucket_size            1                      
system.ruby.IFETCH.miss_latency_hist_seqr::max_bucket            9                      
system.ruby.IFETCH.miss_latency_hist_seqr::samples      3254741                      
system.ruby.IFETCH.miss_latency_hist_seqr |     3254741    100.00%    100.00% |           0      0.00%    100.00% |           0      0.00%    100.00% |           0      0.00%    100.00% |           0      0.00%    100.00% |           0      0.00%    100.00% |           0      0.00%    100.00% |           0      0.00%    100.00% |           0      0.00%    100.00% |           0      0.00%    100.00%
system.ruby.IFETCH.miss_latency_hist_seqr::total      3254741                      
system.ruby.L1Cache_Controller.I.allocI_load |     4089068     23.22%     23.22% |     4247497     24.12%     47.34% |     4988426     28.33%     75.66% |     4286103     24.34%    100.00%
system.ruby.L1Cache_Controller.I.allocI_load::total     17611094                      
system.ruby.L1Cache_Controller.I.allocI_store |     1353858     22.16%     22.16% |     1354549     22.17%     44.33% |     2043234     33.45%     77.78% |     1357586     22.22%    100.00%
system.ruby.L1Cache_Controller.I.allocI_store::total      6109227                      
system.ruby.L1Cache_Controller.I.deallocfwdfrom_in |     5441918     22.95%     22.95% |     5601057     23.62%     46.56% |     7030637     29.64%     76.21% |     5642685     23.79%    100.00%
system.ruby.L1Cache_Controller.I.deallocfwdfrom_in::total     23716297                      
system.ruby.L1Cache_Controller.I_store.Progress |        8548     95.13%     95.13% |         143      1.59%     96.72% |         155      1.72%     98.44% |         140      1.56%    100.00%
system.ruby.L1Cache_Controller.I_store.Progress::total         8986                      
system.ruby.L1Cache_Controller.I_store.Stallfwdfrom_in |           8     42.11%     42.11% |           3     15.79%     57.89% |           3     15.79%     73.68% |           5     26.32%    100.00%
system.ruby.L1Cache_Controller.I_store.Stallfwdfrom_in::total           19                      
system.ruby.L1Cache_Controller.M.MloadMEvent |    79489734     24.65%     24.65% |    75769622     23.50%     48.15% |    89106113     27.63%     75.78% |    78116711     24.22%    100.00%
system.ruby.L1Cache_Controller.M.MloadMEvent::total    322482180                      
system.ruby.L1Cache_Controller.M.MstoreMEvent |    57658672     23.75%     23.75% |    57607452     23.73%     47.48% |    69924880     28.81%     76.29% |    57559694     23.71%    100.00%
system.ruby.L1Cache_Controller.M.MstoreMEvent::total    242750698                      
system.ruby.L1Cache_Controller.M.allocTBE |     1721590     22.43%     22.43% |     1710441     22.29%     44.72% |     2527769     32.93%     77.65% |     1715244     22.35%    100.00%
system.ruby.L1Cache_Controller.M.allocTBE::total      7675044                      
system.ruby.L1Cache_Controller.M.externalstoreMrespfrom_in |     1721736     22.43%     22.43% |     1710557     22.28%     44.72% |     2528211     32.94%     77.65% |     1715389     22.35%    100.00%
system.ruby.L1Cache_Controller.M.externalstoreMrespfrom_in::total      7675893                      
system.ruby.L1Cache_Controller.M_evict.Stallmandatory_in |         882     25.94%     25.94% |         850     25.00%     50.94% |         738     21.71%     72.65% |         930     27.35%    100.00%
system.ruby.L1Cache_Controller.M_evict.Stallmandatory_in::total         3400                      
system.ruby.L1Cache_Controller.M_evict_x_I.Progress |           0      0.00%      0.00% |           0      0.00%      0.00% |           1    100.00%    100.00% |           0      0.00%    100.00%
system.ruby.L1Cache_Controller.M_evict_x_I.Progress::total            1                      
system.ruby.L1Cache_Controller.M_evict_x_I.Stallmandatory_in |           0      0.00%      0.00% |           0      0.00%      0.00% |           4    100.00%    100.00% |           0      0.00%    100.00%
system.ruby.L1Cache_Controller.M_evict_x_I.Stallmandatory_in::total            4                      
system.ruby.L1Cache_Controller.MloadMEvent |    79489734     24.65%     24.65% |    75769622     23.50%     48.15% |    89106113     27.63%     75.78% |    78116711     24.22%    100.00%
system.ruby.L1Cache_Controller.MloadMEvent::total    322482180                      
system.ruby.L1Cache_Controller.MstoreMEvent |    57658672     23.75%     23.75% |    57607452     23.73%     47.48% |    69924880     28.81%     76.29% |    57559694     23.71%    100.00%
system.ruby.L1Cache_Controller.MstoreMEvent::total    242750698                      
system.ruby.L1Cache_Controller.Progress  |      390885     24.46%     24.46% |      358285     22.42%     46.88% |      489347     30.62%     77.50% |      359522     22.50%    100.00%
system.ruby.L1Cache_Controller.Progress::total      1598039                      
system.ruby.L1Cache_Controller.S.SloadSEvent |  1389054462     24.41%     24.41% |  1375073846     24.16%     48.57% |  1558501947     27.38%     75.95% |  1368750127     24.05%    100.00%
system.ruby.L1Cache_Controller.S.SloadSEvent::total   5691380382                      
system.ruby.L1Cache_Controller.S.allocTBE |     4095032     23.24%     23.24% |     4249473     24.11%     47.35% |     4990672     28.32%     75.67% |     4287597     24.33%    100.00%
system.ruby.L1Cache_Controller.S.allocTBE::total     17622774                      
system.ruby.L1Cache_Controller.S.deallocTBE |        6826     45.95%     45.95% |        2849     19.18%     65.13% |        2827     19.03%     84.16% |        2353     15.84%    100.00%
system.ruby.L1Cache_Controller.S.deallocTBE::total        14855                      
system.ruby.L1Cache_Controller.S.externalloadSrespfrom_in |     4089068     23.22%     23.22% |     4247497     24.12%     47.34% |     4988426     28.33%     75.66% |     4286103     24.34%    100.00%
system.ruby.L1Cache_Controller.S.externalloadSrespfrom_in::total     17611094                      
system.ruby.L1Cache_Controller.S_evict.Progress |           1     33.33%     33.33% |           1     33.33%     66.67% |           1     33.33%    100.00% |           0      0.00%    100.00%
system.ruby.L1Cache_Controller.S_evict.Progress::total            3                      
system.ruby.L1Cache_Controller.S_evict.Stallmandatory_in |         505     23.14%     23.14% |         536     24.56%     47.71% |         522     23.92%     71.63% |         619     28.37%    100.00%
system.ruby.L1Cache_Controller.S_evict.Stallmandatory_in::total         2182                      
system.ruby.L1Cache_Controller.S_evict_x_I.Progress |           2     20.00%     20.00% |           4     40.00%     60.00% |           0      0.00%     60.00% |           4     40.00%    100.00%
system.ruby.L1Cache_Controller.S_evict_x_I.Progress::total           10                      
system.ruby.L1Cache_Controller.S_evict_x_I.Stallmandatory_in |           6     18.75%     18.75% |          12     37.50%     56.25% |           0      0.00%     56.25% |          14     43.75%    100.00%
system.ruby.L1Cache_Controller.S_evict_x_I.Stallmandatory_in::total           32                      
system.ruby.L1Cache_Controller.S_store.Progress |      382333     24.06%     24.06% |      358137     22.54%     46.60% |      489190     30.79%     77.38% |      359378     22.62%    100.00%
system.ruby.L1Cache_Controller.S_store.Progress::total      1589038                      
system.ruby.L1Cache_Controller.S_store.Stallfwdfrom_in |           0      0.00%      0.00% |           0      0.00%      0.00% |           3     75.00%     75.00% |           1     25.00%    100.00%
system.ruby.L1Cache_Controller.S_store.Stallfwdfrom_in::total            4                      
system.ruby.L1Cache_Controller.S_store_GetM_Ack_AD.Progress |           1    100.00%    100.00% |           0      0.00%    100.00% |           0      0.00%    100.00% |           0      0.00%    100.00%
system.ruby.L1Cache_Controller.S_store_GetM_Ack_AD.Progress::total            1                      
system.ruby.L1Cache_Controller.SloadSEvent |  1389054462     24.41%     24.41% |  1375073846     24.16%     48.57% |  1558501947     27.38%     75.95% |  1368750127     24.05%    100.00%
system.ruby.L1Cache_Controller.SloadSEvent::total   5691380382                      
system.ruby.L1Cache_Controller.Stallfwdfrom_in |           8     34.78%     34.78% |           3     13.04%     47.83% |           6     26.09%     73.91% |           6     26.09%    100.00%
system.ruby.L1Cache_Controller.Stallfwdfrom_in::total           23                      
system.ruby.L1Cache_Controller.Stallmandatory_in |        1393     24.80%     24.80% |        1398     24.88%     49.68% |        1264     22.50%     72.18% |        1563     27.82%    100.00%
system.ruby.L1Cache_Controller.Stallmandatory_in::total         5618                      
system.ruby.L1Cache_Controller.allocI_load |     4089068     23.22%     23.22% |     4247497     24.12%     47.34% |     4988426     28.33%     75.66% |     4286103     24.34%    100.00%
system.ruby.L1Cache_Controller.allocI_load::total     17611094                      
system.ruby.L1Cache_Controller.allocI_store |     1353858     22.16%     22.16% |     1354549     22.17%     44.33% |     2043234     33.45%     77.78% |     1357586     22.22%    100.00%
system.ruby.L1Cache_Controller.allocI_store::total      6109227                      
system.ruby.L1Cache_Controller.allocTBE  |     5816622     22.99%     22.99% |     5959914     23.56%     46.55% |     7518441     29.72%     76.27% |     6002841     23.73%    100.00%
system.ruby.L1Cache_Controller.allocTBE::total     25297818                      
system.ruby.L1Cache_Controller.deallocTBE |        6826     45.95%     45.95% |        2849     19.18%     65.13% |        2827     19.03%     84.16% |        2353     15.84%    100.00%
system.ruby.L1Cache_Controller.deallocTBE::total        14855                      
system.ruby.L1Cache_Controller.deallocfwdfrom_in |     5441918     22.95%     22.95% |     5601057     23.62%     46.56% |     7030637     29.64%     76.21% |     5642685     23.79%    100.00%
system.ruby.L1Cache_Controller.deallocfwdfrom_in::total     23716297                      
system.ruby.L1Cache_Controller.externalloadSrespfrom_in |     4089068     23.22%     23.22% |     4247497     24.12%     47.34% |     4988426     28.33%     75.66% |     4286103     24.34%    100.00%
system.ruby.L1Cache_Controller.externalloadSrespfrom_in::total     17611094                      
system.ruby.L1Cache_Controller.externalstoreMrespfrom_in |     1721736     22.43%     22.43% |     1710557     22.28%     44.72% |     2528211     32.94%     77.65% |     1715389     22.35%    100.00%
system.ruby.L1Cache_Controller.externalstoreMrespfrom_in::total      7675893                      
system.ruby.LD.hit_latency_hist_seqr::bucket_size            1                      
system.ruby.LD.hit_latency_hist_seqr::max_bucket            9                      
system.ruby.LD.hit_latency_hist_seqr::samples    762001921                      
system.ruby.LD.hit_latency_hist_seqr     |   762001921    100.00%    100.00% |           0      0.00%    100.00% |           0      0.00%    100.00% |           0      0.00%    100.00% |           0      0.00%    100.00% |           0      0.00%    100.00% |           0      0.00%    100.00% |           0      0.00%    100.00% |           0      0.00%    100.00% |           0      0.00%    100.00%
system.ruby.LD.hit_latency_hist_seqr::total    762001921                      
system.ruby.LD.latency_hist_seqr::bucket_size            1                      
system.ruby.LD.latency_hist_seqr::max_bucket            9                      
system.ruby.LD.latency_hist_seqr::samples    776358274                      
system.ruby.LD.latency_hist_seqr         |   776358274    100.00%    100.00% |           0      0.00%    100.00% |           0      0.00%    100.00% |           0      0.00%    100.00% |           0      0.00%    100.00% |           0      0.00%    100.00% |           0      0.00%    100.00% |           0      0.00%    100.00% |           0      0.00%    100.00% |           0      0.00%    100.00%
system.ruby.LD.latency_hist_seqr::total     776358274                      
system.ruby.LD.miss_latency_hist_seqr::bucket_size            1                      
system.ruby.LD.miss_latency_hist_seqr::max_bucket            9                      
system.ruby.LD.miss_latency_hist_seqr::samples     14356353                      
system.ruby.LD.miss_latency_hist_seqr    |    14356353    100.00%    100.00% |           0      0.00%    100.00% |           0      0.00%    100.00% |           0      0.00%    100.00% |           0      0.00%    100.00% |           0      0.00%    100.00% |           0      0.00%    100.00% |           0      0.00%    100.00% |           0      0.00%    100.00% |           0      0.00%    100.00%
system.ruby.LD.miss_latency_hist_seqr::total     14356353                      
system.ruby.Locked_RMW_Read.hit_latency_hist_seqr::bucket_size            1                      
system.ruby.Locked_RMW_Read.hit_latency_hist_seqr::max_bucket            9                      
system.ruby.Locked_RMW_Read.hit_latency_hist_seqr::samples       206080                      
system.ruby.Locked_RMW_Read.hit_latency_hist_seqr |      206080    100.00%    100.00% |           0      0.00%    100.00% |           0      0.00%    100.00% |           0      0.00%    100.00% |           0      0.00%    100.00% |           0      0.00%    100.00% |           0      0.00%    100.00% |           0      0.00%    100.00% |           0      0.00%    100.00% |           0      0.00%    100.00%
system.ruby.Locked_RMW_Read.hit_latency_hist_seqr::total       206080                      
system.ruby.Locked_RMW_Read.latency_hist_seqr::bucket_size            1                      
system.ruby.Locked_RMW_Read.latency_hist_seqr::max_bucket            9                      
system.ruby.Locked_RMW_Read.latency_hist_seqr::samples       273498                      
system.ruby.Locked_RMW_Read.latency_hist_seqr |      273498    100.00%    100.00% |           0      0.00%    100.00% |           0      0.00%    100.00% |           0      0.00%    100.00% |           0      0.00%    100.00% |           0      0.00%    100.00% |           0      0.00%    100.00% |           0      0.00%    100.00% |           0      0.00%    100.00% |           0      0.00%    100.00%
system.ruby.Locked_RMW_Read.latency_hist_seqr::total       273498                      
system.ruby.Locked_RMW_Read.miss_latency_hist_seqr::bucket_size            1                      
system.ruby.Locked_RMW_Read.miss_latency_hist_seqr::max_bucket            9                      
system.ruby.Locked_RMW_Read.miss_latency_hist_seqr::samples        67418                      
system.ruby.Locked_RMW_Read.miss_latency_hist_seqr |       67418    100.00%    100.00% |           0      0.00%    100.00% |           0      0.00%    100.00% |           0      0.00%    100.00% |           0      0.00%    100.00% |           0      0.00%    100.00% |           0      0.00%    100.00% |           0      0.00%    100.00% |           0      0.00%    100.00% |           0      0.00%    100.00%
system.ruby.Locked_RMW_Read.miss_latency_hist_seqr::total        67418                      
system.ruby.Locked_RMW_Write.hit_latency_hist_seqr::bucket_size            1                      
system.ruby.Locked_RMW_Write.hit_latency_hist_seqr::max_bucket            9                      
system.ruby.Locked_RMW_Write.hit_latency_hist_seqr::samples       273498                      
system.ruby.Locked_RMW_Write.hit_latency_hist_seqr |      273498    100.00%    100.00% |           0      0.00%    100.00% |           0      0.00%    100.00% |           0      0.00%    100.00% |           0      0.00%    100.00% |           0      0.00%    100.00% |           0      0.00%    100.00% |           0      0.00%    100.00% |           0      0.00%    100.00% |           0      0.00%    100.00%
system.ruby.Locked_RMW_Write.hit_latency_hist_seqr::total       273498                      
system.ruby.Locked_RMW_Write.latency_hist_seqr::bucket_size            1                      
system.ruby.Locked_RMW_Write.latency_hist_seqr::max_bucket            9                      
system.ruby.Locked_RMW_Write.latency_hist_seqr::samples       273498                      
system.ruby.Locked_RMW_Write.latency_hist_seqr |      273498    100.00%    100.00% |           0      0.00%    100.00% |           0      0.00%    100.00% |           0      0.00%    100.00% |           0      0.00%    100.00% |           0      0.00%    100.00% |           0      0.00%    100.00% |           0      0.00%    100.00% |           0      0.00%    100.00% |           0      0.00%    100.00%
system.ruby.Locked_RMW_Write.latency_hist_seqr::total       273498                      
system.ruby.RMW_Read.hit_latency_hist_seqr::bucket_size            1                      
system.ruby.RMW_Read.hit_latency_hist_seqr::max_bucket            9                      
system.ruby.RMW_Read.hit_latency_hist_seqr::samples      8263164                      
system.ruby.RMW_Read.hit_latency_hist_seqr |     8263164    100.00%    100.00% |           0      0.00%    100.00% |           0      0.00%    100.00% |           0      0.00%    100.00% |           0      0.00%    100.00% |           0      0.00%    100.00% |           0      0.00%    100.00% |           0      0.00%    100.00% |           0      0.00%    100.00% |           0      0.00%    100.00%
system.ruby.RMW_Read.hit_latency_hist_seqr::total      8263164                      
system.ruby.RMW_Read.latency_hist_seqr::bucket_size            1                      
system.ruby.RMW_Read.latency_hist_seqr::max_bucket            9                      
system.ruby.RMW_Read.latency_hist_seqr::samples      8396912                      
system.ruby.RMW_Read.latency_hist_seqr   |     8396912    100.00%    100.00% |           0      0.00%    100.00% |           0      0.00%    100.00% |           0      0.00%    100.00% |           0      0.00%    100.00% |           0      0.00%    100.00% |           0      0.00%    100.00% |           0      0.00%    100.00% |           0      0.00%    100.00% |           0      0.00%    100.00%
system.ruby.RMW_Read.latency_hist_seqr::total      8396912                      
system.ruby.RMW_Read.miss_latency_hist_seqr::bucket_size            1                      
system.ruby.RMW_Read.miss_latency_hist_seqr::max_bucket            9                      
system.ruby.RMW_Read.miss_latency_hist_seqr::samples       133748                      
system.ruby.RMW_Read.miss_latency_hist_seqr |      133748    100.00%    100.00% |           0      0.00%    100.00% |           0      0.00%    100.00% |           0      0.00%    100.00% |           0      0.00%    100.00% |           0      0.00%    100.00% |           0      0.00%    100.00% |           0      0.00%    100.00% |           0      0.00%    100.00% |           0      0.00%    100.00%
system.ruby.RMW_Read.miss_latency_hist_seqr::total       133748                      
system.ruby.ST.hit_latency_hist_seqr::bucket_size            1                      
system.ruby.ST.hit_latency_hist_seqr::max_bucket            9                      
system.ruby.ST.hit_latency_hist_seqr::samples    234007956                      
system.ruby.ST.hit_latency_hist_seqr     |   234007956    100.00%    100.00% |           0      0.00%    100.00% |           0      0.00%    100.00% |           0      0.00%    100.00% |           0      0.00%    100.00% |           0      0.00%    100.00% |           0      0.00%    100.00% |           0      0.00%    100.00% |           0      0.00%    100.00% |           0      0.00%    100.00%
system.ruby.ST.hit_latency_hist_seqr::total    234007956                      
system.ruby.ST.latency_hist_seqr::bucket_size            1                      
system.ruby.ST.latency_hist_seqr::max_bucket            9                      
system.ruby.ST.latency_hist_seqr::samples    241482683                      
system.ruby.ST.latency_hist_seqr         |   241482683    100.00%    100.00% |           0      0.00%    100.00% |           0      0.00%    100.00% |           0      0.00%    100.00% |           0      0.00%    100.00% |           0      0.00%    100.00% |           0      0.00%    100.00% |           0      0.00%    100.00% |           0      0.00%    100.00% |           0      0.00%    100.00%
system.ruby.ST.latency_hist_seqr::total     241482683                      
system.ruby.ST.miss_latency_hist_seqr::bucket_size            1                      
system.ruby.ST.miss_latency_hist_seqr::max_bucket            9                      
system.ruby.ST.miss_latency_hist_seqr::samples      7474727                      
system.ruby.ST.miss_latency_hist_seqr    |     7474727    100.00%    100.00% |           0      0.00%    100.00% |           0      0.00%    100.00% |           0      0.00%    100.00% |           0      0.00%    100.00% |           0      0.00%    100.00% |           0      0.00%    100.00% |           0      0.00%    100.00% |           0      0.00%    100.00% |           0      0.00%    100.00%
system.ruby.ST.miss_latency_hist_seqr::total      7474727                      
system.ruby.dir_cntrl0.fwdFrom.avg_buf_msgs     0.008302                       # Average number of messages in buffer
system.ruby.dir_cntrl0.fwdFrom.avg_stall_time  2999.978536                       # Average number of cycles messages are stalled in this MB
system.ruby.dir_cntrl0.reqTo.avg_buf_msgs     0.002857                       # Average number of messages in buffer
system.ruby.dir_cntrl0.reqTo.avg_stall_time  5156.115123                       # Average number of cycles messages are stalled in this MB
system.ruby.dir_cntrl0.requestToMemory.avg_buf_msgs     0.001916                       # Average number of messages in buffer
system.ruby.dir_cntrl0.requestToMemory.avg_stall_time   499.999999                       # Average number of cycles messages are stalled in this MB
system.ruby.dir_cntrl0.respFrom.avg_buf_msgs     0.008873                       # Average number of messages in buffer
system.ruby.dir_cntrl0.respFrom.avg_stall_time  3002.034972                       # Average number of cycles messages are stalled in this MB
system.ruby.dir_cntrl0.respTo.avg_buf_msgs     0.000004                       # Average number of messages in buffer
system.ruby.dir_cntrl0.respTo.avg_stall_time  6986.833068                       # Average number of cycles messages are stalled in this MB
system.ruby.dir_cntrl0.responseFromMemory.avg_buf_msgs     0.001919                       # Average number of messages in buffer
system.ruby.dir_cntrl0.responseFromMemory.avg_stall_time   499.999979                       # Average number of cycles messages are stalled in this MB
system.ruby.dir_cntrl1.fwdFrom.avg_buf_msgs     0.008173                       # Average number of messages in buffer
system.ruby.dir_cntrl1.fwdFrom.avg_stall_time  2999.977299                       # Average number of cycles messages are stalled in this MB
system.ruby.dir_cntrl1.reqTo.avg_buf_msgs     0.002816                       # Average number of messages in buffer
system.ruby.dir_cntrl1.reqTo.avg_stall_time  5317.428785                       # Average number of cycles messages are stalled in this MB
system.ruby.dir_cntrl1.requestToMemory.avg_buf_msgs     0.001897                       # Average number of messages in buffer
system.ruby.dir_cntrl1.requestToMemory.avg_stall_time   499.999975                       # Average number of cycles messages are stalled in this MB
system.ruby.dir_cntrl1.respFrom.avg_buf_msgs     0.008753                       # Average number of messages in buffer
system.ruby.dir_cntrl1.respFrom.avg_stall_time  3002.096788                       # Average number of cycles messages are stalled in this MB
system.ruby.dir_cntrl1.respTo.avg_buf_msgs     0.000003                       # Average number of messages in buffer
system.ruby.dir_cntrl1.respTo.avg_stall_time  6094.367489                       # Average number of cycles messages are stalled in this MB
system.ruby.dir_cntrl1.responseFromMemory.avg_buf_msgs     0.001900                       # Average number of messages in buffer
system.ruby.dir_cntrl1.responseFromMemory.avg_stall_time   499.999955                       # Average number of cycles messages are stalled in this MB
system.ruby.dir_cntrl2.fwdFrom.avg_buf_msgs     0.008176                       # Average number of messages in buffer
system.ruby.dir_cntrl2.fwdFrom.avg_stall_time  2999.968867                       # Average number of cycles messages are stalled in this MB
system.ruby.dir_cntrl2.reqTo.avg_buf_msgs     0.002814                       # Average number of messages in buffer
system.ruby.dir_cntrl2.reqTo.avg_stall_time  4997.486794                       # Average number of cycles messages are stalled in this MB
system.ruby.dir_cntrl2.requestToMemory.avg_buf_msgs     0.001895                       # Average number of messages in buffer
system.ruby.dir_cntrl2.requestToMemory.avg_stall_time   499.999973                       # Average number of cycles messages are stalled in this MB
system.ruby.dir_cntrl2.respFrom.avg_buf_msgs     0.008811                       # Average number of messages in buffer
system.ruby.dir_cntrl2.respFrom.avg_stall_time  3004.763684                       # Average number of cycles messages are stalled in this MB
system.ruby.dir_cntrl2.respTo.avg_buf_msgs     0.000003                       # Average number of messages in buffer
system.ruby.dir_cntrl2.respTo.avg_stall_time  7011.984108                       # Average number of cycles messages are stalled in this MB
system.ruby.dir_cntrl2.responseFromMemory.avg_buf_msgs     0.001897                       # Average number of messages in buffer
system.ruby.dir_cntrl2.responseFromMemory.avg_stall_time   499.999954                       # Average number of cycles messages are stalled in this MB
system.ruby.dir_cntrl3.fwdFrom.avg_buf_msgs     0.008181                       # Average number of messages in buffer
system.ruby.dir_cntrl3.fwdFrom.avg_stall_time  2999.986394                       # Average number of cycles messages are stalled in this MB
system.ruby.dir_cntrl3.reqTo.avg_buf_msgs     0.002815                       # Average number of messages in buffer
system.ruby.dir_cntrl3.reqTo.avg_stall_time  5065.829287                       # Average number of cycles messages are stalled in this MB
system.ruby.dir_cntrl3.requestToMemory.avg_buf_msgs     0.001896                       # Average number of messages in buffer
system.ruby.dir_cntrl3.requestToMemory.avg_stall_time   499.999999                       # Average number of cycles messages are stalled in this MB
system.ruby.dir_cntrl3.respFrom.avg_buf_msgs     0.008831                       # Average number of messages in buffer
system.ruby.dir_cntrl3.respFrom.avg_stall_time  3005.623517                       # Average number of cycles messages are stalled in this MB
system.ruby.dir_cntrl3.respTo.avg_buf_msgs     0.000002                       # Average number of messages in buffer
system.ruby.dir_cntrl3.respTo.avg_stall_time  6558.584549                       # Average number of cycles messages are stalled in this MB
system.ruby.dir_cntrl3.responseFromMemory.avg_buf_msgs     0.001898                       # Average number of messages in buffer
system.ruby.dir_cntrl3.responseFromMemory.avg_stall_time   499.999980                       # Average number of cycles messages are stalled in this MB
system.ruby.dma_cntrl0.cache.demand_accesses            0                       # Number of cache demand accesses
system.ruby.dma_cntrl0.cache.demand_hits            0                       # Number of cache demand hits
system.ruby.dma_cntrl0.cache.demand_misses            0                       # Number of cache demand misses
system.ruby.dma_cntrl0.fully_busy_cycles       108272                       # cycles for which number of transistions == max transitions
system.ruby.dma_cntrl0.fwdFrom.avg_buf_msgs     0.000010                       # Average number of messages in buffer
system.ruby.dma_cntrl0.fwdFrom.avg_stall_time  6502.891413                       # Average number of cycles messages are stalled in this MB
system.ruby.dma_cntrl0.mandatoryQueue.avg_buf_msgs     0.001625                       # Average number of messages in buffer
system.ruby.dma_cntrl0.mandatoryQueue.avg_stall_time 162157.527121                       # Average number of cycles messages are stalled in this MB
system.ruby.dma_cntrl0.reqTo.avg_buf_msgs     0.002560                       # Average number of messages in buffer
system.ruby.dma_cntrl0.reqTo.avg_stall_time 16009.323599                       # Average number of cycles messages are stalled in this MB
system.ruby.dma_cntrl0.respFrom.avg_buf_msgs     0.000010                       # Average number of messages in buffer
system.ruby.dma_cntrl0.respFrom.avg_stall_time 46096.968388                       # Average number of cycles messages are stalled in this MB
system.ruby.dma_cntrl0.respTo.avg_buf_msgs     0.000000                       # Average number of messages in buffer
system.ruby.dma_cntrl0.respTo.avg_stall_time   999.763712                       # Average number of cycles messages are stalled in this MB
system.ruby.hit_latency_hist_seqr::bucket_size            1                      
system.ruby.hit_latency_hist_seqr::max_bucket            9                      
system.ruby.hit_latency_hist_seqr::samples   6256613260                      
system.ruby.hit_latency_hist_seqr        |  6256613260    100.00%    100.00% |           0      0.00%    100.00% |           0      0.00%    100.00% |           0      0.00%    100.00% |           0      0.00%    100.00% |           0      0.00%    100.00% |           0      0.00%    100.00% |           0      0.00%    100.00% |           0      0.00%    100.00% |           0      0.00%    100.00%
system.ruby.hit_latency_hist_seqr::total   6256613260                      
system.ruby.io_controller.cache.demand_accesses            0                       # Number of cache demand accesses
system.ruby.io_controller.cache.demand_hits            0                       # Number of cache demand hits
system.ruby.io_controller.cache.demand_misses            0                       # Number of cache demand misses
system.ruby.l1_cntrl0.cache.demand_accesses            0                       # Number of cache demand accesses
system.ruby.l1_cntrl0.cache.demand_hits             0                       # Number of cache demand hits
system.ruby.l1_cntrl0.cache.demand_misses            0                       # Number of cache demand misses
system.ruby.l1_cntrl0.fully_busy_cycles             5                       # cycles for which number of transistions == max transitions
system.ruby.l1_cntrl0.fwdFrom.avg_buf_msgs     0.001255                       # Average number of messages in buffer
system.ruby.l1_cntrl0.fwdFrom.avg_stall_time  6399.360435                       # Average number of cycles messages are stalled in this MB
system.ruby.l1_cntrl0.mandatoryQueue.avg_buf_msgs     0.387249                       # Average number of messages in buffer
system.ruby.l1_cntrl0.mandatoryQueue.avg_stall_time  2035.636317                       # Average number of cycles messages are stalled in this MB
system.ruby.l1_cntrl0.reqTo.avg_buf_msgs     0.002590                       # Average number of messages in buffer
system.ruby.l1_cntrl0.reqTo.avg_stall_time   499.865296                       # Average number of cycles messages are stalled in this MB
system.ruby.l1_cntrl0.respFrom.avg_buf_msgs     0.001343                       # Average number of messages in buffer
system.ruby.l1_cntrl0.respFrom.avg_stall_time 16500.527322                       # Average number of cycles messages are stalled in this MB
system.ruby.l1_cntrl0.respTo.avg_buf_msgs     0.000007                       # Average number of messages in buffer
system.ruby.l1_cntrl0.respTo.avg_stall_time   999.574368                       # Average number of cycles messages are stalled in this MB
system.ruby.l1_cntrl1.cache.demand_accesses            0                       # Number of cache demand accesses
system.ruby.l1_cntrl1.cache.demand_hits             0                       # Number of cache demand hits
system.ruby.l1_cntrl1.cache.demand_misses            0                       # Number of cache demand misses
system.ruby.l1_cntrl1.fully_busy_cycles             5                       # cycles for which number of transistions == max transitions
system.ruby.l1_cntrl1.fwdFrom.avg_buf_msgs     1.664014                       # Average number of messages in buffer
system.ruby.l1_cntrl1.fwdFrom.avg_stall_time  6608.638770                       # Average number of cycles messages are stalled in this MB
system.ruby.l1_cntrl1.mandatoryQueue.avg_buf_msgs     0.383943                       # Average number of messages in buffer
system.ruby.l1_cntrl1.mandatoryQueue.avg_stall_time  2078.229729                       # Average number of cycles messages are stalled in this MB
system.ruby.l1_cntrl1.reqTo.avg_buf_msgs     0.002659                       # Average number of messages in buffer
system.ruby.l1_cntrl1.reqTo.avg_stall_time   500.000301                       # Average number of cycles messages are stalled in this MB
system.ruby.l1_cntrl1.respFrom.avg_buf_msgs     0.001373                       # Average number of messages in buffer
system.ruby.l1_cntrl1.respFrom.avg_stall_time 16658.653059                       # Average number of cycles messages are stalled in this MB
system.ruby.l1_cntrl1.respTo.avg_buf_msgs     0.000009                       # Average number of messages in buffer
system.ruby.l1_cntrl1.respTo.avg_stall_time   999.879912                       # Average number of cycles messages are stalled in this MB
system.ruby.l1_cntrl2.cache.demand_accesses            0                       # Number of cache demand accesses
system.ruby.l1_cntrl2.cache.demand_hits             0                       # Number of cache demand hits
system.ruby.l1_cntrl2.cache.demand_misses            0                       # Number of cache demand misses
system.ruby.l1_cntrl2.fully_busy_cycles             4                       # cycles for which number of transistions == max transitions
system.ruby.l1_cntrl2.fwdFrom.avg_buf_msgs     0.846521                       # Average number of messages in buffer
system.ruby.l1_cntrl2.fwdFrom.avg_stall_time  6501.816357                       # Average number of cycles messages are stalled in this MB
system.ruby.l1_cntrl2.mandatoryQueue.avg_buf_msgs     0.443933                       # Average number of messages in buffer
system.ruby.l1_cntrl2.mandatoryQueue.avg_stall_time  2547.497798                       # Average number of cycles messages are stalled in this MB
system.ruby.l1_cntrl2.reqTo.avg_buf_msgs     0.003348                       # Average number of messages in buffer
system.ruby.l1_cntrl2.reqTo.avg_stall_time   500.000594                       # Average number of cycles messages are stalled in this MB
system.ruby.l1_cntrl2.respFrom.avg_buf_msgs     0.001732                       # Average number of messages in buffer
system.ruby.l1_cntrl2.respFrom.avg_stall_time 16493.009202                       # Average number of cycles messages are stalled in this MB
system.ruby.l1_cntrl2.respTo.avg_buf_msgs     0.000010                       # Average number of messages in buffer
system.ruby.l1_cntrl2.respTo.avg_stall_time   999.949162                       # Average number of cycles messages are stalled in this MB
system.ruby.l1_cntrl3.cache.demand_accesses            0                       # Number of cache demand accesses
system.ruby.l1_cntrl3.cache.demand_hits             0                       # Number of cache demand hits
system.ruby.l1_cntrl3.cache.demand_misses            0                       # Number of cache demand misses
system.ruby.l1_cntrl3.fully_busy_cycles             6                       # cycles for which number of transistions == max transitions
system.ruby.l1_cntrl3.fwdFrom.avg_buf_msgs     0.854959                       # Average number of messages in buffer
system.ruby.l1_cntrl3.fwdFrom.avg_stall_time  6667.837970                       # Average number of cycles messages are stalled in this MB
system.ruby.l1_cntrl3.mandatoryQueue.avg_buf_msgs     0.383245                       # Average number of messages in buffer
system.ruby.l1_cntrl3.mandatoryQueue.avg_stall_time  2093.081933                       # Average number of cycles messages are stalled in this MB
system.ruby.l1_cntrl3.reqTo.avg_buf_msgs     0.002679                       # Average number of messages in buffer
system.ruby.l1_cntrl3.reqTo.avg_stall_time   500.000439                       # Average number of cycles messages are stalled in this MB
system.ruby.l1_cntrl3.respFrom.avg_buf_msgs     0.001382                       # Average number of messages in buffer
system.ruby.l1_cntrl3.respFrom.avg_stall_time 16502.328694                       # Average number of cycles messages are stalled in this MB
system.ruby.l1_cntrl3.respTo.avg_buf_msgs     0.000010                       # Average number of messages in buffer
system.ruby.l1_cntrl3.respTo.avg_stall_time   999.883249                       # Average number of cycles messages are stalled in this MB
system.ruby.latency_hist_seqr::bucket_size            1                      
system.ruby.latency_hist_seqr::max_bucket            9                      
system.ruby.latency_hist_seqr::samples     6281900247                      
system.ruby.latency_hist_seqr            |  6281900247    100.00%    100.00% |           0      0.00%    100.00% |           0      0.00%    100.00% |           0      0.00%    100.00% |           0      0.00%    100.00% |           0      0.00%    100.00% |           0      0.00%    100.00% |           0      0.00%    100.00% |           0      0.00%    100.00% |           0      0.00%    100.00%
system.ruby.latency_hist_seqr::total       6281900247                      
system.ruby.miss_latency_hist_seqr::bucket_size            1                      
system.ruby.miss_latency_hist_seqr::max_bucket            9                      
system.ruby.miss_latency_hist_seqr::samples     25286987                      
system.ruby.miss_latency_hist_seqr       |    25286987    100.00%    100.00% |           0      0.00%    100.00% |           0      0.00%    100.00% |           0      0.00%    100.00% |           0      0.00%    100.00% |           0      0.00%    100.00% |           0      0.00%    100.00% |           0      0.00%    100.00% |           0      0.00%    100.00% |           0      0.00%    100.00%
system.ruby.miss_latency_hist_seqr::total     25286987                      
system.ruby.network.average_flit_latency    16.640001                      
system.ruby.network.average_flit_network_latency    12.215654                      
system.ruby.network.average_flit_queueing_latency     4.424347                      
system.ruby.network.average_flit_vnet_latency |   15.072885                       |    5.005667                       |    9.824744                      
system.ruby.network.average_flit_vqueue_latency |    6.042575                       |    6.000000                       |    1.384952                      
system.ruby.network.average_hops             1.001273                      
system.ruby.network.average_packet_latency    15.377402                      
system.ruby.network.average_packet_network_latency    11.753172                      
system.ruby.network.average_packet_queueing_latency     3.624230                      
system.ruby.network.average_packet_vnet_latency |   25.034288                       |    5.005667                       |    8.143194                      
system.ruby.network.average_packet_vqueue_latency |    6.033142                       |    6.000000                       |    1.224918                      
system.ruby.network.avg_link_utilization     0.159232                      
system.ruby.network.avg_vc_load          |    0.065526     41.15%     41.15% |    0.007469      4.69%     45.84% |    0.007323      4.60%     50.44% |    0.007318      4.60%     55.04% |    0.012318      7.74%     62.77% |    0.001377      0.86%     63.64% |    0.001369      0.86%     64.50% |    0.001369      0.86%     65.36% |    0.041064     25.79%     91.15% |    0.004911      3.08%     94.23% |    0.004602      2.89%     97.12% |    0.004587      2.88%    100.00%
system.ruby.network.avg_vc_load::total       0.159232                      
system.ruby.network.ext_in_link_utilization    230396699                      
system.ruby.network.ext_out_link_utilization    230396699                      
system.ruby.network.flit_network_latency |  1911126330                       |   119002209                       |   784317760                      
system.ruby.network.flit_queueing_latency |   766152173                       |   142640984                       |   110561879                      
system.ruby.network.flits_injected       |   126792339     55.03%     55.03% |    23773497     10.32%     65.35% |    79830863     34.65%    100.00%
system.ruby.network.flits_injected::total    230396699                      
system.ruby.network.flits_received       |   126792339     55.03%     55.03% |    23773497     10.32%     65.35% |    79830863     34.65%    100.00%
system.ruby.network.flits_received::total    230396699                      
system.ruby.network.int_link_utilization    230689894                      
system.ruby.network.packet_network_latency |   636160183                       |   119002209                       |   399452108                      
system.ruby.network.packet_queueing_latency |   153311525                       |   142640984                       |    60086523                      
system.ruby.network.packets_injected     |    25411555     25.87%     25.87% |    23773497     24.20%     50.07% |    49053491     49.93%    100.00%
system.ruby.network.packets_injected::total     98238543                      
system.ruby.network.packets_received     |    25411555     25.87%     25.87% |    23773497     24.20%     50.07% |    49053491     49.93%    100.00%
system.ruby.network.packets_received::total     98238543                      
system.ruby.network.routers0.buffer_reads    113543791                      
system.ruby.network.routers0.buffer_writes    113543791                      
system.ruby.network.routers0.crossbar_activity    113543791                      
system.ruby.network.routers0.sw_input_arbiter_activity    113739652                      
system.ruby.network.routers0.sw_output_arbiter_activity    113543791                      
system.ruby.network.routers1.buffer_reads    111457418                      
system.ruby.network.routers1.buffer_writes    111457418                      
system.ruby.network.routers1.crossbar_activity    111457418                      
system.ruby.network.routers1.sw_input_arbiter_activity    111559329                      
system.ruby.network.routers1.sw_output_arbiter_activity    111457418                      
system.ruby.network.routers2.buffer_reads    122838614                      
system.ruby.network.routers2.buffer_writes    122838614                      
system.ruby.network.routers2.crossbar_activity    122838614                      
system.ruby.network.routers2.sw_input_arbiter_activity    122958802                      
system.ruby.network.routers2.sw_output_arbiter_activity    122838614                      
system.ruby.network.routers3.buffer_reads    113246770                      
system.ruby.network.routers3.buffer_writes    113246770                      
system.ruby.network.routers3.crossbar_activity    113246770                      
system.ruby.network.routers3.sw_input_arbiter_activity    113346745                      
system.ruby.network.routers3.sw_output_arbiter_activity    113246770                      
system.ruby.outstanding_req_hist_seqr::bucket_size            1                      
system.ruby.outstanding_req_hist_seqr::max_bucket            9                      
system.ruby.outstanding_req_hist_seqr::samples   6281900247                      
system.ruby.outstanding_req_hist_seqr::mean     1.000805                      
system.ruby.outstanding_req_hist_seqr::gmean     1.000558                      
system.ruby.outstanding_req_hist_seqr::stdev     0.028365                      
system.ruby.outstanding_req_hist_seqr    |           0      0.00%      0.00% |  6276842066     99.92%     99.92% |     5058181      0.08%    100.00% |           0      0.00%    100.00% |           0      0.00%    100.00% |           0      0.00%    100.00% |           0      0.00%    100.00% |           0      0.00%    100.00% |           0      0.00%    100.00% |           0      0.00%    100.00%
system.ruby.outstanding_req_hist_seqr::total   6281900247                      
system.switch_cpus0.Branches                 97379625                       # Number of branches fetched
system.switch_cpus0.committedInsts          924518844                       # Number of instructions committed
system.switch_cpus0.committedOps           1596745638                       # Number of ops (including micro ops) committed
system.switch_cpus0.dtb.rdAccesses          187796491                       # TLB accesses on read requests
system.switch_cpus0.dtb.rdMisses               234348                       # TLB misses on read requests
system.switch_cpus0.dtb.wrAccesses           57343620                       # TLB accesses on write requests
system.switch_cpus0.dtb.wrMisses                41445                       # TLB misses on write requests
system.switch_cpus0.idle_fraction            0.145171                       # Percentage of idle cycles
system.switch_cpus0.itb.rdAccesses                  0                       # TLB accesses on read requests
system.switch_cpus0.itb.rdMisses                    0                       # TLB misses on read requests
system.switch_cpus0.itb.wrAccesses         1285984003                       # TLB accesses on write requests
system.switch_cpus0.itb.wrMisses                52816                       # TLB misses on write requests
system.switch_cpus0.kern.inst.arm                   0                       # number of arm instructions executed
system.switch_cpus0.kern.inst.quiesce               0                       # number of quiesce instructions executed
system.switch_cpus0.not_idle_fraction        0.854829                       # Percentage of non-idle cycles
system.switch_cpus0.numCycles              4342240731                       # number of cpu cycles simulated
system.switch_cpus0.numWorkItemsCompleted            0                       # number of work items this cpu completed
system.switch_cpus0.numWorkItemsStarted             0                       # number of work items this cpu started
system.switch_cpus0.num_busy_cycles      3711874762.308653                       # Number of busy cycles
system.switch_cpus0.num_cc_register_reads    850888489                       # number of times the CC registers were read
system.switch_cpus0.num_cc_register_writes    617249793                       # number of times the CC registers were written
system.switch_cpus0.num_conditional_control_insts     84430093                       # number of instructions that are conditional controls
system.switch_cpus0.num_fp_alu_accesses     360873090                       # Number of float alu accesses
system.switch_cpus0.num_fp_insts            360873090                       # number of float instructions
system.switch_cpus0.num_fp_register_reads    596738673                       # number of times the floating registers were read
system.switch_cpus0.num_fp_register_writes    325189522                       # number of times the floating registers were written
system.switch_cpus0.num_func_calls            3429387                       # number of times a function call or return occured
system.switch_cpus0.num_idle_cycles      630365968.691347                       # Number of idle cycles
system.switch_cpus0.num_int_alu_accesses   1328171880                       # Number of integer alu accesses
system.switch_cpus0.num_int_insts          1328171880                       # number of integer instructions
system.switch_cpus0.num_int_register_reads   2596542419                       # number of times the integer registers were read
system.switch_cpus0.num_int_register_writes   1153185221                       # number of times the integer registers were written
system.switch_cpus0.num_load_insts          186281310                       # Number of load instructions
system.switch_cpus0.num_mem_refs            243583765                       # number of memory refs
system.switch_cpus0.num_store_insts          57302455                       # Number of store instructions
system.switch_cpus0.num_vec_alu_accesses            0                       # Number of vector alu accesses
system.switch_cpus0.num_vec_insts                   0                       # number of vector instructions
system.switch_cpus0.num_vec_register_reads            0                       # number of times the vector registers were read
system.switch_cpus0.num_vec_register_writes            0                       # number of times the vector registers were written
system.switch_cpus0.op_class::No_OpClass      3066184      0.19%      0.19% # Class of executed instruction
system.switch_cpus0.op_class::IntAlu       1053763895     65.99%     66.18% # Class of executed instruction
system.switch_cpus0.op_class::IntMult        25655956      1.61%     67.79% # Class of executed instruction
system.switch_cpus0.op_class::IntDiv          8475785      0.53%     68.32% # Class of executed instruction
system.switch_cpus0.op_class::FloatAdd       20948539      1.31%     69.63% # Class of executed instruction
system.switch_cpus0.op_class::FloatCmp              0      0.00%     69.63% # Class of executed instruction
system.switch_cpus0.op_class::FloatCvt            144      0.00%     69.63% # Class of executed instruction
system.switch_cpus0.op_class::FloatMult             0      0.00%     69.63% # Class of executed instruction
system.switch_cpus0.op_class::FloatMultAcc            0      0.00%     69.63% # Class of executed instruction
system.switch_cpus0.op_class::FloatDiv              0      0.00%     69.63% # Class of executed instruction
system.switch_cpus0.op_class::FloatMisc             0      0.00%     69.63% # Class of executed instruction
system.switch_cpus0.op_class::FloatSqrt             0      0.00%     69.63% # Class of executed instruction
system.switch_cpus0.op_class::SimdAdd            1036      0.00%     69.63% # Class of executed instruction
system.switch_cpus0.op_class::SimdAddAcc            0      0.00%     69.63% # Class of executed instruction
system.switch_cpus0.op_class::SimdAlu        90159876      5.65%     75.28% # Class of executed instruction
system.switch_cpus0.op_class::SimdCmp               0      0.00%     75.28% # Class of executed instruction
system.switch_cpus0.op_class::SimdCvt           77908      0.00%     75.28% # Class of executed instruction
system.switch_cpus0.op_class::SimdMisc       15764328      0.99%     76.27% # Class of executed instruction
system.switch_cpus0.op_class::SimdMult              0      0.00%     76.27% # Class of executed instruction
system.switch_cpus0.op_class::SimdMultAcc            0      0.00%     76.27% # Class of executed instruction
system.switch_cpus0.op_class::SimdShift         95074      0.01%     76.28% # Class of executed instruction
system.switch_cpus0.op_class::SimdShiftAcc            0      0.00%     76.28% # Class of executed instruction
system.switch_cpus0.op_class::SimdDiv               0      0.00%     76.28% # Class of executed instruction
system.switch_cpus0.op_class::SimdSqrt              0      0.00%     76.28% # Class of executed instruction
system.switch_cpus0.op_class::SimdFloatAdd     32752044      2.05%     78.33% # Class of executed instruction
system.switch_cpus0.op_class::SimdFloatAlu            0      0.00%     78.33% # Class of executed instruction
system.switch_cpus0.op_class::SimdFloatCmp         2892      0.00%     78.33% # Class of executed instruction
system.switch_cpus0.op_class::SimdFloatCvt     62748991      3.93%     82.26% # Class of executed instruction
system.switch_cpus0.op_class::SimdFloatDiv      3648631      0.23%     82.49% # Class of executed instruction
system.switch_cpus0.op_class::SimdFloatMisc            0      0.00%     82.49% # Class of executed instruction
system.switch_cpus0.op_class::SimdFloatMult     36077956      2.26%     84.75% # Class of executed instruction
system.switch_cpus0.op_class::SimdFloatMultAcc            0      0.00%     84.75% # Class of executed instruction
system.switch_cpus0.op_class::SimdFloatSqrt            0      0.00%     84.75% # Class of executed instruction
system.switch_cpus0.op_class::SimdReduceAdd            0      0.00%     84.75% # Class of executed instruction
system.switch_cpus0.op_class::SimdReduceAlu            0      0.00%     84.75% # Class of executed instruction
system.switch_cpus0.op_class::SimdReduceCmp            0      0.00%     84.75% # Class of executed instruction
system.switch_cpus0.op_class::SimdFloatReduceAdd            0      0.00%     84.75% # Class of executed instruction
system.switch_cpus0.op_class::SimdFloatReduceCmp            0      0.00%     84.75% # Class of executed instruction
system.switch_cpus0.op_class::SimdAes               0      0.00%     84.75% # Class of executed instruction
system.switch_cpus0.op_class::SimdAesMix            0      0.00%     84.75% # Class of executed instruction
system.switch_cpus0.op_class::SimdSha1Hash            0      0.00%     84.75% # Class of executed instruction
system.switch_cpus0.op_class::SimdSha1Hash2            0      0.00%     84.75% # Class of executed instruction
system.switch_cpus0.op_class::SimdSha256Hash            0      0.00%     84.75% # Class of executed instruction
system.switch_cpus0.op_class::SimdSha256Hash2            0      0.00%     84.75% # Class of executed instruction
system.switch_cpus0.op_class::SimdShaSigma2            0      0.00%     84.75% # Class of executed instruction
system.switch_cpus0.op_class::SimdShaSigma3            0      0.00%     84.75% # Class of executed instruction
system.switch_cpus0.op_class::SimdPredAlu            0      0.00%     84.75% # Class of executed instruction
system.switch_cpus0.op_class::MemRead       125769322      7.88%     92.62% # Class of executed instruction
system.switch_cpus0.op_class::MemWrite       36689881      2.30%     94.92% # Class of executed instruction
system.switch_cpus0.op_class::FloatMemRead     60511988      3.79%     98.71% # Class of executed instruction
[...]
system.mem_ctrls1.llc.tags.occ_percent::total     0.260504                       # Average percentage of cache occupancy
system.mem_ctrls1.llc.tags.occ_task_id_blocks::1024       103198                       # Occupied blocks per task id
system.mem_ctrls1.llc.tags.age_task_id_blocks_1024::0           10                       # Occupied blocks per task id
system.mem_ctrls1.llc.tags.age_task_id_blocks_1024::1            1                       # Occupied blocks per task id
system.mem_ctrls1.llc.tags.age_task_id_blocks_1024::2            2                       # Occupied blocks per task id
system.mem_ctrls1.llc.tags.age_task_id_blocks_1024::3          538                       # Occupied blocks per task id
system.mem_ctrls1.llc.tags.age_task_id_blocks_1024::4       102647                       # Occupied blocks per task id
system.mem_ctrls1.llc.tags.occ_task_id_percent::1024     0.393669                       # Percentage of cache occupancy per task id
system.mem_ctrls1.llc.tags.tag_accesses     131921182                       # Number of tag accesses
system.mem_ctrls1.llc.tags.data_accesses      8238624                       # Number of data accesses
system.mem_ctrls1.llc.tags.power_state.pwrStateResidencyTicks::UNDEFINED 103831581688001                       # Cumulative time (in ticks) in various power states
system.mem_ctrls1.rank1.actEnergy           117088860                       # Energy for activate commands per rank (pJ)
system.mem_ctrls1.rank1.preEnergy            62226615                       # Energy for precharge commands per rank (pJ)
system.mem_ctrls1.rank1.readEnergy          361919460                       # Energy for read commands per rank (pJ)
system.mem_ctrls1.rank1.writeEnergy                 0                       # Energy for write commands per rank (pJ)
system.mem_ctrls1.rank1.refreshEnergy    171400354320.000031                       # Energy for refresh commands per rank (pJ)
system.mem_ctrls1.rank1.actBackEnergy     63519648030                       # Energy for active background per rank (pJ)
system.mem_ctrls1.rank1.preBackEnergy    780290428800                       # Energy for precharge background per rank (pJ)
system.mem_ctrls1.rank1.actPowerDownEnergy            0                       # Energy for active power-down per rank (pJ)
system.mem_ctrls1.rank1.prePowerDownEnergy            0                       # Energy for precharge power-down per rank (pJ)
system.mem_ctrls1.rank1.selfRefreshEnergy            0                       # Energy for self refresh per rank (pJ)
system.mem_ctrls1.rank1.totalEnergy      1015751666085                       # Total energy per rank (pJ)
system.mem_ctrls1.rank1.averagePower       467.807041                       # Core power per rank (mW)
system.mem_ctrls1.rank1.totalIdleTime               0                       # Total Idle time Per DRAM Rank
system.mem_ctrls1.rank1.memoryStateTime::IDLE 2027972684752                       # Time in different power states
system.mem_ctrls1.rank1.memoryStateTime::REF  72504380000                       # Time in different power states
system.mem_ctrls1.rank1.memoryStateTime::SREF            0                       # Time in different power states
system.mem_ctrls1.rank1.memoryStateTime::PRE_PDN            0                       # Time in different power states
system.mem_ctrls1.rank1.memoryStateTime::ACT  70827719249                       # Time in different power states
system.mem_ctrls1.rank1.memoryStateTime::ACT_PDN            0                       # Time in different power states
system.mem_ctrls1.rank0.actEnergy           121187220                       # Energy for activate commands per rank (pJ)
system.mem_ctrls1.rank0.preEnergy            64408740                       # Energy for precharge commands per rank (pJ)
system.mem_ctrls1.rank0.readEnergy          374914260                       # Energy for read commands per rank (pJ)
system.mem_ctrls1.rank0.writeEnergy                 0                       # Energy for write commands per rank (pJ)
system.mem_ctrls1.rank0.refreshEnergy    171400354320.000031                       # Energy for refresh commands per rank (pJ)
system.mem_ctrls1.rank0.actBackEnergy     64369173750                       # Energy for active background per rank (pJ)
system.mem_ctrls1.rank0.preBackEnergy    779575370880                       # Energy for precharge background per rank (pJ)
system.mem_ctrls1.rank0.actPowerDownEnergy            0                       # Energy for active power-down per rank (pJ)
system.mem_ctrls1.rank0.prePowerDownEnergy            0                       # Energy for precharge power-down per rank (pJ)
system.mem_ctrls1.rank0.selfRefreshEnergy            0                       # Energy for self refresh per rank (pJ)
system.mem_ctrls1.rank0.totalEnergy      1015905409170                       # Total energy per rank (pJ)
system.mem_ctrls1.rank0.averagePower       467.877848                       # Core power per rank (mW)
system.mem_ctrls1.rank0.totalIdleTime               0                       # Total Idle time Per DRAM Rank
system.mem_ctrls1.rank0.memoryStateTime::IDLE 2026106078251                       # Time in different power states
system.mem_ctrls1.rank0.memoryStateTime::REF  72504380000                       # Time in different power states
system.mem_ctrls1.rank0.memoryStateTime::SREF            0                       # Time in different power states
system.mem_ctrls1.rank0.memoryStateTime::PRE_PDN            0                       # Time in different power states
system.mem_ctrls1.rank0.memoryStateTime::ACT  72694325750                       # Time in different power states
system.mem_ctrls1.rank0.memoryStateTime::ACT_PDN            0                       # Time in different power states
system.mem_ctrls1.power_state.pwrStateResidencyTicks::UNDEFINED 103831581688001                       # Cumulative time (in ticks) in various power states
system.cpu_voltage_domain.voltage                   1                       # Voltage in Volts
system.iobus.trans_dist::ReadReq                  762                       # Transaction distribution
system.iobus.trans_dist::ReadResp                 762                       # Transaction distribution
system.iobus.trans_dist::WriteReq               11263                       # Transaction distribution
system.iobus.trans_dist::WriteResp              11263                       # Transaction distribution
system.iobus.pkt_count_system.pc.south_bridge.io_apic.int_master::system.ruby.l1_cntrl1.sequencer.pio-slave-port           92                       # Packet count per connected master and slave (bytes)
system.iobus.pkt_count_system.pc.south_bridge.io_apic.int_master::total           92                       # Packet count per connected master and slave (bytes)
system.iobus.pkt_count_system.ruby.l1_cntrl0.sequencer.mem-master-port::system.pc.south_bridge.ide.pio           34                       # Packet count per connected master and slave (bytes)
system.iobus.pkt_count_system.ruby.l1_cntrl0.sequencer.mem-master-port::system.ruby.l1_cntrl0.sequencer.pio-slave-port         5228                       # Packet count per connected master and slave (bytes)
system.iobus.pkt_count_system.ruby.l1_cntrl0.sequencer.mem-master-port::system.ruby.l1_cntrl1.sequencer.pio-slave-port           26                       # Packet count per connected master and slave (bytes)
system.iobus.pkt_count_system.ruby.l1_cntrl0.sequencer.mem-master-port::system.ruby.l1_cntrl2.sequencer.pio-slave-port          250                       # Packet count per connected master and slave (bytes)
system.iobus.pkt_count_system.ruby.l1_cntrl0.sequencer.mem-master-port::system.ruby.l1_cntrl3.sequencer.pio-slave-port           22                       # Packet count per connected master and slave (bytes)
system.iobus.pkt_count_system.ruby.l1_cntrl0.sequencer.mem-master-port::total         5560                       # Packet count per connected master and slave (bytes)
system.iobus.pkt_count_system.ruby.l1_cntrl1.sequencer.mem-master-port::system.pc.south_bridge.ide.pio          312                       # Packet count per connected master and slave (bytes)
system.iobus.pkt_count_system.ruby.l1_cntrl1.sequencer.mem-master-port::system.pc.com_1.pio          160                       # Packet count per connected master and slave (bytes)
system.iobus.pkt_count_system.ruby.l1_cntrl1.sequencer.mem-master-port::system.ruby.l1_cntrl0.sequencer.pio-slave-port           34                       # Packet count per connected master and slave (bytes)
system.iobus.pkt_count_system.ruby.l1_cntrl1.sequencer.mem-master-port::system.ruby.l1_cntrl1.sequencer.pio-slave-port         5514                       # Packet count per connected master and slave (bytes)
system.iobus.pkt_count_system.ruby.l1_cntrl1.sequencer.mem-master-port::system.ruby.l1_cntrl2.sequencer.pio-slave-port          324                       # Packet count per connected master and slave (bytes)
system.iobus.pkt_count_system.ruby.l1_cntrl1.sequencer.mem-master-port::system.ruby.l1_cntrl3.sequencer.pio-slave-port           44                       # Packet count per connected master and slave (bytes)
system.iobus.pkt_count_system.ruby.l1_cntrl1.sequencer.mem-master-port::total         6388                       # Packet count per connected master and slave (bytes)
system.iobus.pkt_count_system.ruby.l1_cntrl2.sequencer.mem-master-port::system.pc.south_bridge.ide.pio          782                       # Packet count per connected master and slave (bytes)
system.iobus.pkt_count_system.ruby.l1_cntrl2.sequencer.mem-master-port::system.ruby.l1_cntrl0.sequencer.pio-slave-port           26                       # Packet count per connected master and slave (bytes)
system.iobus.pkt_count_system.ruby.l1_cntrl2.sequencer.mem-master-port::system.ruby.l1_cntrl1.sequencer.pio-slave-port           82                       # Packet count per connected master and slave (bytes)
system.iobus.pkt_count_system.ruby.l1_cntrl2.sequencer.mem-master-port::system.ruby.l1_cntrl2.sequencer.pio-slave-port         5490                       # Packet count per connected master and slave (bytes)
system.iobus.pkt_count_system.ruby.l1_cntrl2.sequencer.mem-master-port::system.ruby.l1_cntrl3.sequencer.pio-slave-port           28                       # Packet count per connected master and slave (bytes)
system.iobus.pkt_count_system.ruby.l1_cntrl2.sequencer.mem-master-port::total         6408                       # Packet count per connected master and slave (bytes)
system.iobus.pkt_count_system.ruby.l1_cntrl3.sequencer.mem-master-port::system.pc.south_bridge.ide.pio           68                       # Packet count per connected master and slave (bytes)
system.iobus.pkt_count_system.ruby.l1_cntrl3.sequencer.mem-master-port::system.ruby.l1_cntrl0.sequencer.pio-slave-port           24                       # Packet count per connected master and slave (bytes)
system.iobus.pkt_count_system.ruby.l1_cntrl3.sequencer.mem-master-port::system.ruby.l1_cntrl1.sequencer.pio-slave-port           28                       # Packet count per connected master and slave (bytes)
system.iobus.pkt_count_system.ruby.l1_cntrl3.sequencer.mem-master-port::system.ruby.l1_cntrl2.sequencer.pio-slave-port          256                       # Packet count per connected master and slave (bytes)
system.iobus.pkt_count_system.ruby.l1_cntrl3.sequencer.mem-master-port::system.ruby.l1_cntrl3.sequencer.pio-slave-port         5226                       # Packet count per connected master and slave (bytes)
system.iobus.pkt_count_system.ruby.l1_cntrl3.sequencer.mem-master-port::total         5602                       # Packet count per connected master and slave (bytes)
system.iobus.pkt_count::total                   24050                       # Packet count per connected master and slave (bytes)
system.iobus.pkt_size_system.pc.south_bridge.io_apic.int_master::system.ruby.l1_cntrl1.sequencer.pio-slave-port          184                       # Cumulative packet size per connected master and slave (bytes)
system.iobus.pkt_size_system.pc.south_bridge.io_apic.int_master::total          184                       # Cumulative packet size per connected master and slave (bytes)
system.iobus.pkt_size_system.ruby.l1_cntrl0.sequencer.mem-master-port::system.pc.south_bridge.ide.pio           20                       # Cumulative packet size per connected master and slave (bytes)
system.iobus.pkt_size_system.ruby.l1_cntrl0.sequencer.mem-master-port::system.ruby.l1_cntrl0.sequencer.pio-slave-port        10456                       # Cumulative packet size per connected master and slave (bytes)
system.iobus.pkt_size_system.ruby.l1_cntrl0.sequencer.mem-master-port::system.ruby.l1_cntrl1.sequencer.pio-slave-port           52                       # Cumulative packet size per connected master and slave (bytes)
system.iobus.pkt_size_system.ruby.l1_cntrl0.sequencer.mem-master-port::system.ruby.l1_cntrl2.sequencer.pio-slave-port          500                       # Cumulative packet size per connected master and slave (bytes)
system.iobus.pkt_size_system.ruby.l1_cntrl0.sequencer.mem-master-port::system.ruby.l1_cntrl3.sequencer.pio-slave-port           44                       # Cumulative packet size per connected master and slave (bytes)
system.iobus.pkt_size_system.ruby.l1_cntrl0.sequencer.mem-master-port::total        11072                       # Cumulative packet size per connected master and slave (bytes)
system.iobus.pkt_size_system.ruby.l1_cntrl1.sequencer.mem-master-port::system.pc.south_bridge.ide.pio          156                       # Cumulative packet size per connected master and slave (bytes)
system.iobus.pkt_size_system.ruby.l1_cntrl1.sequencer.mem-master-port::system.pc.com_1.pio           80                       # Cumulative packet size per connected master and slave (bytes)
system.iobus.pkt_size_system.ruby.l1_cntrl1.sequencer.mem-master-port::system.ruby.l1_cntrl0.sequencer.pio-slave-port           68                       # Cumulative packet size per connected master and slave (bytes)
system.iobus.pkt_size_system.ruby.l1_cntrl1.sequencer.mem-master-port::system.ruby.l1_cntrl1.sequencer.pio-slave-port        11028                       # Cumulative packet size per connected master and slave (bytes)
system.iobus.pkt_size_system.ruby.l1_cntrl1.sequencer.mem-master-port::system.ruby.l1_cntrl2.sequencer.pio-slave-port          648                       # Cumulative packet size per connected master and slave (bytes)
system.iobus.pkt_size_system.ruby.l1_cntrl1.sequencer.mem-master-port::system.ruby.l1_cntrl3.sequencer.pio-slave-port           88                       # Cumulative packet size per connected master and slave (bytes)
system.iobus.pkt_size_system.ruby.l1_cntrl1.sequencer.mem-master-port::total        12068                       # Cumulative packet size per connected master and slave (bytes)
system.iobus.pkt_size_system.ruby.l1_cntrl2.sequencer.mem-master-port::system.pc.south_bridge.ide.pio          460                       # Cumulative packet size per connected master and slave (bytes)
system.iobus.pkt_size_system.ruby.l1_cntrl2.sequencer.mem-master-port::system.ruby.l1_cntrl0.sequencer.pio-slave-port           52                       # Cumulative packet size per connected master and slave (bytes)
system.iobus.pkt_size_system.ruby.l1_cntrl2.sequencer.mem-master-port::system.ruby.l1_cntrl1.sequencer.pio-slave-port          164                       # Cumulative packet size per connected master and slave (bytes)
system.iobus.pkt_size_system.ruby.l1_cntrl2.sequencer.mem-master-port::system.ruby.l1_cntrl2.sequencer.pio-slave-port        10980                       # Cumulative packet size per connected master and slave (bytes)
system.iobus.pkt_size_system.ruby.l1_cntrl2.sequencer.mem-master-port::system.ruby.l1_cntrl3.sequencer.pio-slave-port           56                       # Cumulative packet size per connected master and slave (bytes)
system.iobus.pkt_size_system.ruby.l1_cntrl2.sequencer.mem-master-port::total        11712                       # Cumulative packet size per connected master and slave (bytes)
system.iobus.pkt_size_system.ruby.l1_cntrl3.sequencer.mem-master-port::system.pc.south_bridge.ide.pio           40                       # Cumulative packet size per connected master and slave (bytes)
system.iobus.pkt_size_system.ruby.l1_cntrl3.sequencer.mem-master-port::system.ruby.l1_cntrl0.sequencer.pio-slave-port           48                       # Cumulative packet size per connected master and slave (bytes)
system.iobus.pkt_size_system.ruby.l1_cntrl3.sequencer.mem-master-port::system.ruby.l1_cntrl1.sequencer.pio-slave-port           56                       # Cumulative packet size per connected master and slave (bytes)
system.iobus.pkt_size_system.ruby.l1_cntrl3.sequencer.mem-master-port::system.ruby.l1_cntrl2.sequencer.pio-slave-port          512                       # Cumulative packet size per connected master and slave (bytes)
system.iobus.pkt_size_system.ruby.l1_cntrl3.sequencer.mem-master-port::system.ruby.l1_cntrl3.sequencer.pio-slave-port        10452                       # Cumulative packet size per connected master and slave (bytes)
system.iobus.pkt_size_system.ruby.l1_cntrl3.sequencer.mem-master-port::total        11108                       # Cumulative packet size per connected master and slave (bytes)
system.iobus.pkt_size::total                    46144                       # Cumulative packet size per connected master and slave (bytes)
system.iobus.reqLayer2.occupancy               991000                       # Layer occupancy (ticks)
system.iobus.reqLayer2.utilization                0.0                       # Layer utilization (%)
system.iobus.power_state.pwrStateResidencyTicks::UNDEFINED 103831581688001                       # Cumulative time (in ticks) in various power states
system.iobus.reqLayer19.occupancy             7782374                       # Layer occupancy (ticks)
system.iobus.reqLayer19.utilization               0.0                       # Layer utilization (%)
system.iobus.reqLayer17.occupancy             6221980                       # Layer occupancy (ticks)
system.iobus.reqLayer17.utilization               0.0                       # Layer utilization (%)
system.iobus.reqLayer12.occupancy              101000                       # Layer occupancy (ticks)
system.iobus.reqLayer12.utilization               0.0                       # Layer utilization (%)
system.iobus.reqLayer18.occupancy             6653455                       # Layer occupancy (ticks)
system.iobus.reqLayer18.utilization               0.0                       # Layer utilization (%)
system.iobus.respLayer9.occupancy             4246500                       # Layer occupancy (ticks)
system.iobus.respLayer9.utilization               0.0                       # Layer utilization (%)
system.iobus.respLayer5.occupancy             4899500                       # Layer occupancy (ticks)
system.iobus.respLayer5.utilization               0.0                       # Layer utilization (%)
system.iobus.respLayer7.occupancy             4721000                       # Layer occupancy (ticks)
system.iobus.respLayer7.utilization               0.0                       # Layer utilization (%)
system.iobus.respLayer0.occupancy               74974                       # Layer occupancy (ticks)
system.iobus.respLayer0.utilization               0.0                       # Layer utilization (%)
system.iobus.respLayer3.occupancy             4224500                       # Layer occupancy (ticks)
system.iobus.respLayer3.utilization               0.0                       # Layer utilization (%)
system.iobus.reqLayer20.occupancy             6220453                       # Layer occupancy (ticks)
system.iobus.reqLayer20.utilization               0.0                       # Layer utilization (%)

---------- End Simulation Statistics   ----------
