
---------- Begin Simulation Statistics ----------
final_tick                                    1000000                       # Number of ticks from beginning of simulation (restored from checkpoints and never reset)
host_mem_usage                                 748280                       # Number of bytes of host memory used
host_seconds                                    29.11                       # Real time elapsed on the host
host_tick_rate                                  34353                       # Simulator tick rate (ticks/s)
sim_freq                                   1000000000                       # Frequency of simulated ticks
sim_seconds                                  0.001000                       # Number of seconds simulated
sim_ticks                                     1000000                       # Number of ticks simulated
system.ruby.Directory_Controller.I.Receive_Forward |        3381      6.39%      6.39% |        3398      6.42%     12.80% |        3255      6.15%     18.95% |        3302      6.24%     25.19% |        3252      6.14%     31.33% |        3336      6.30%     37.63% |        3308      6.25%     43.88% |        3328      6.29%     50.16% |        3264      6.16%     56.33% |        3329      6.29%     62.61% |        3333      6.29%     68.91% |        3327      6.28%     75.19% |        3258      6.15%     81.35% |        3303      6.24%     87.58% |        3368      6.36%     93.95% |        3206      6.05%    100.00%
system.ruby.Directory_Controller.I.Receive_Forward::total        52948                      
system.ruby.Directory_Controller.I.Receive_Request |        3243      6.11%      6.11% |        3363      6.34%     12.45% |        3331      6.28%     18.72% |        3402      6.41%     25.14% |        3285      6.19%     31.33% |        3385      6.38%     37.70% |        3282      6.18%     43.89% |        3254      6.13%     50.02% |        3262      6.15%     56.17% |        3345      6.30%     62.47% |        3354      6.32%     68.79% |        3229      6.08%     74.87% |        3339      6.29%     81.17% |        3301      6.22%     87.39% |        3272      6.17%     93.55% |        3422      6.45%    100.00%
system.ruby.Directory_Controller.I.Receive_Request::total        53069                      
system.ruby.Directory_Controller.I.Receive_Response |        3390      6.34%      6.34% |        3207      5.99%     12.33% |        3368      6.29%     18.62% |        3383      6.32%     24.95% |        3327      6.22%     31.17% |        3365      6.29%     37.46% |        3373      6.30%     43.76% |        3323      6.21%     49.97% |        3387      6.33%     56.30% |        3413      6.38%     62.68% |        3333      6.23%     68.91% |        3189      5.96%     74.87% |        3444      6.44%     81.31% |        3314      6.19%     87.50% |        3328      6.22%     93.72% |        3360      6.28%    100.00%
system.ruby.Directory_Controller.I.Receive_Response::total        53504                      
system.ruby.Directory_Controller.Receive_Forward |        3381      6.39%      6.39% |        3398      6.42%     12.80% |        3255      6.15%     18.95% |        3302      6.24%     25.19% |        3252      6.14%     31.33% |        3336      6.30%     37.63% |        3308      6.25%     43.88% |        3328      6.29%     50.16% |        3264      6.16%     56.33% |        3329      6.29%     62.61% |        3333      6.29%     68.91% |        3327      6.28%     75.19% |        3258      6.15%     81.35% |        3303      6.24%     87.58% |        3368      6.36%     93.95% |        3206      6.05%    100.00%
system.ruby.Directory_Controller.Receive_Forward::total        52948                      
system.ruby.Directory_Controller.Receive_Request |        3243      6.11%      6.11% |        3363      6.34%     12.45% |        3331      6.28%     18.72% |        3402      6.41%     25.14% |        3285      6.19%     31.33% |        3385      6.38%     37.70% |        3282      6.18%     43.89% |        3254      6.13%     50.02% |        3262      6.15%     56.17% |        3345      6.30%     62.47% |        3354      6.32%     68.79% |        3229      6.08%     74.87% |        3339      6.29%     81.17% |        3301      6.22%     87.39% |        3272      6.17%     93.55% |        3422      6.45%    100.00%
system.ruby.Directory_Controller.Receive_Request::total        53069                      
system.ruby.Directory_Controller.Receive_Response |        3390      6.34%      6.34% |        3207      5.99%     12.33% |        3368      6.29%     18.62% |        3383      6.32%     24.95% |        3327      6.22%     31.17% |        3365      6.29%     37.46% |        3373      6.30%     43.76% |        3323      6.21%     49.97% |        3387      6.33%     56.30% |        3413      6.38%     62.68% |        3333      6.23%     68.91% |        3189      5.96%     74.87% |        3444      6.44%     81.31% |        3314      6.19%     87.50% |        3328      6.22%     93.72% |        3360      6.28%    100.00%
system.ruby.Directory_Controller.Receive_Response::total        53504                      
system.ruby.IFETCH.hit_latency_hist_seqr::bucket_size            1                      
system.ruby.IFETCH.hit_latency_hist_seqr::max_bucket            9                      
system.ruby.IFETCH.hit_latency_hist_seqr::samples        52948                      
system.ruby.IFETCH.hit_latency_hist_seqr |       52948    100.00%    100.00% |           0      0.00%    100.00% |           0      0.00%    100.00% |           0      0.00%    100.00% |           0      0.00%    100.00% |           0      0.00%    100.00% |           0      0.00%    100.00% |           0      0.00%    100.00% |           0      0.00%    100.00% |           0      0.00%    100.00%
system.ruby.IFETCH.hit_latency_hist_seqr::total        52948                      
system.ruby.IFETCH.latency_hist_seqr::bucket_size            1                      
system.ruby.IFETCH.latency_hist_seqr::max_bucket            9                      
system.ruby.IFETCH.latency_hist_seqr::samples        52948                      
system.ruby.IFETCH.latency_hist_seqr     |       52948    100.00%    100.00% |           0      0.00%    100.00% |           0      0.00%    100.00% |           0      0.00%    100.00% |           0      0.00%    100.00% |           0      0.00%    100.00% |           0      0.00%    100.00% |           0      0.00%    100.00% |           0      0.00%    100.00% |           0      0.00%    100.00%
system.ruby.IFETCH.latency_hist_seqr::total        52948                      
system.ruby.L1Cache_Controller.Forward   |        3217      6.08%      6.08% |        3297      6.23%     12.30% |        3236      6.11%     18.41% |        3283      6.20%     24.61% |        3204      6.05%     30.67% |        3311      6.25%     36.92% |        3339      6.31%     43.23% |        3436      6.49%     49.71% |        3297      6.23%     55.94% |        3302      6.24%     62.18% |        3271      6.18%     68.36% |        3274      6.18%     74.54% |        3333      6.29%     80.83% |        3385      6.39%     87.23% |        3449      6.51%     93.74% |        3314      6.26%    100.00%
system.ruby.L1Cache_Controller.Forward::total        52948                      
system.ruby.L1Cache_Controller.I.Forward |        3217      6.08%      6.08% |        3297      6.23%     12.30% |        3236      6.11%     18.41% |        3283      6.20%     24.61% |        3204      6.05%     30.67% |        3311      6.25%     36.92% |        3339      6.31%     43.23% |        3436      6.49%     49.71% |        3297      6.23%     55.94% |        3302      6.24%     62.18% |        3271      6.18%     68.36% |        3274      6.18%     74.54% |        3333      6.29%     80.83% |        3385      6.39%     87.23% |        3449      6.51%     93.74% |        3314      6.26%    100.00%
system.ruby.L1Cache_Controller.I.Forward::total        52948                      
system.ruby.L1Cache_Controller.I.Request |        3297      6.21%      6.21% |        3342      6.30%     12.51% |        3397      6.40%     18.91% |        3267      6.16%     25.07% |        3269      6.16%     31.23% |        3312      6.24%     37.47% |        3362      6.34%     43.80% |        3332      6.28%     50.08% |        3347      6.31%     56.39% |        3379      6.37%     62.76% |        3250      6.12%     68.88% |        3281      6.18%     75.06% |        3286      6.19%     81.25% |        3364      6.34%     87.59% |        3332      6.28%     93.87% |        3252      6.13%    100.00%
system.ruby.L1Cache_Controller.I.Request::total        53069                      
system.ruby.L1Cache_Controller.I.Response |        3373      6.30%      6.30% |        3474      6.49%     12.80% |        3390      6.34%     19.13% |        3264      6.10%     25.23% |        3325      6.21%     31.45% |        3259      6.09%     37.54% |        3345      6.25%     43.79% |        3390      6.34%     50.13% |        3330      6.22%     56.35% |        3353      6.27%     62.62% |        3272      6.12%     68.73% |        3312      6.19%     74.92% |        3256      6.09%     81.01% |        3533      6.60%     87.61% |        3294      6.16%     93.77% |        3336      6.23%    100.00%
system.ruby.L1Cache_Controller.I.Response::total        53506                      
system.ruby.L1Cache_Controller.Request   |        3297      6.21%      6.21% |        3342      6.30%     12.51% |        3397      6.40%     18.91% |        3267      6.16%     25.07% |        3269      6.16%     31.23% |        3312      6.24%     37.47% |        3362      6.34%     43.80% |        3332      6.28%     50.08% |        3347      6.31%     56.39% |        3379      6.37%     62.76% |        3250      6.12%     68.88% |        3281      6.18%     75.06% |        3286      6.19%     81.25% |        3364      6.34%     87.59% |        3332      6.28%     93.87% |        3252      6.13%    100.00%
system.ruby.L1Cache_Controller.Request::total        53069                      
system.ruby.L1Cache_Controller.Response  |        3373      6.30%      6.30% |        3474      6.49%     12.80% |        3390      6.34%     19.13% |        3264      6.10%     25.23% |        3325      6.21%     31.45% |        3259      6.09%     37.54% |        3345      6.25%     43.79% |        3390      6.34%     50.13% |        3330      6.22%     56.35% |        3353      6.27%     62.62% |        3272      6.12%     68.73% |        3312      6.19%     74.92% |        3256      6.09%     81.01% |        3533      6.60%     87.61% |        3294      6.16%     93.77% |        3336      6.23%    100.00%
system.ruby.L1Cache_Controller.Response::total        53506                      
system.ruby.LD.hit_latency_hist_seqr::bucket_size            1                      
system.ruby.LD.hit_latency_hist_seqr::max_bucket            9                      
system.ruby.LD.hit_latency_hist_seqr::samples        53069                      
system.ruby.LD.hit_latency_hist_seqr     |       53069    100.00%    100.00% |           0      0.00%    100.00% |           0      0.00%    100.00% |           0      0.00%    100.00% |           0      0.00%    100.00% |           0      0.00%    100.00% |           0      0.00%    100.00% |           0      0.00%    100.00% |           0      0.00%    100.00% |           0      0.00%    100.00%
system.ruby.LD.hit_latency_hist_seqr::total        53069                      
system.ruby.LD.latency_hist_seqr::bucket_size            1                      
system.ruby.LD.latency_hist_seqr::max_bucket            9                      
system.ruby.LD.latency_hist_seqr::samples        53069                      
system.ruby.LD.latency_hist_seqr         |       53069    100.00%    100.00% |           0      0.00%    100.00% |           0      0.00%    100.00% |           0      0.00%    100.00% |           0      0.00%    100.00% |           0      0.00%    100.00% |           0      0.00%    100.00% |           0      0.00%    100.00% |           0      0.00%    100.00% |           0      0.00%    100.00%
system.ruby.LD.latency_hist_seqr::total         53069                      
system.ruby.ST.hit_latency_hist_seqr::bucket_size            1                      
system.ruby.ST.hit_latency_hist_seqr::max_bucket            9                      
system.ruby.ST.hit_latency_hist_seqr::samples        53506                      
system.ruby.ST.hit_latency_hist_seqr     |       53506    100.00%    100.00% |           0      0.00%    100.00% |           0      0.00%    100.00% |           0      0.00%    100.00% |           0      0.00%    100.00% |           0      0.00%    100.00% |           0      0.00%    100.00% |           0      0.00%    100.00% |           0      0.00%    100.00% |           0      0.00%    100.00%
system.ruby.ST.hit_latency_hist_seqr::total        53506                      
system.ruby.ST.latency_hist_seqr::bucket_size            1                      
system.ruby.ST.latency_hist_seqr::max_bucket            9                      
system.ruby.ST.latency_hist_seqr::samples        53506                      
system.ruby.ST.latency_hist_seqr         |       53506    100.00%    100.00% |           0      0.00%    100.00% |           0      0.00%    100.00% |           0      0.00%    100.00% |           0      0.00%    100.00% |           0      0.00%    100.00% |           0      0.00%    100.00% |           0      0.00%    100.00% |           0      0.00%    100.00% |           0      0.00%    100.00%
system.ruby.ST.latency_hist_seqr::total         53506                      
system.ruby.dir_cntrl0.forwardToDir.avg_buf_msgs     0.003381                       # Average number of messages in buffer
system.ruby.dir_cntrl0.forwardToDir.avg_stall_time    13.036129                       # Average number of cycles messages are stalled in this MB
system.ruby.dir_cntrl0.requestToDir.avg_buf_msgs     0.003243                       # Average number of messages in buffer
system.ruby.dir_cntrl0.requestToDir.avg_stall_time    12.961260                       # Average number of cycles messages are stalled in this MB
system.ruby.dir_cntrl0.responseToDir.avg_buf_msgs     0.003390                       # Average number of messages in buffer
system.ruby.dir_cntrl0.responseToDir.avg_stall_time    18.160368                       # Average number of cycles messages are stalled in this MB
system.ruby.dir_cntrl1.forwardToDir.avg_buf_msgs     0.003398                       # Average number of messages in buffer
system.ruby.dir_cntrl1.forwardToDir.avg_stall_time    12.047883                       # Average number of cycles messages are stalled in this MB
system.ruby.dir_cntrl1.requestToDir.avg_buf_msgs     0.003363                       # Average number of messages in buffer
system.ruby.dir_cntrl1.requestToDir.avg_stall_time    11.972630                       # Average number of cycles messages are stalled in this MB
system.ruby.dir_cntrl1.responseToDir.avg_buf_msgs     0.003207                       # Average number of messages in buffer
system.ruby.dir_cntrl1.responseToDir.avg_stall_time    17.098424                       # Average number of cycles messages are stalled in this MB
system.ruby.dir_cntrl10.forwardToDir.avg_buf_msgs     0.003333                       # Average number of messages in buffer
system.ruby.dir_cntrl10.forwardToDir.avg_stall_time    10.999722                       # Average number of cycles messages are stalled in this MB
system.ruby.dir_cntrl10.requestToDir.avg_buf_msgs     0.003354                       # Average number of messages in buffer
system.ruby.dir_cntrl10.requestToDir.avg_stall_time    11.008480                       # Average number of cycles messages are stalled in this MB
system.ruby.dir_cntrl10.responseToDir.avg_buf_msgs     0.003333                       # Average number of messages in buffer
system.ruby.dir_cntrl10.responseToDir.avg_stall_time    16.107682                       # Average number of cycles messages are stalled in this MB
system.ruby.dir_cntrl11.forwardToDir.avg_buf_msgs     0.003327                       # Average number of messages in buffer
system.ruby.dir_cntrl11.forwardToDir.avg_stall_time    11.963619                       # Average number of cycles messages are stalled in this MB
system.ruby.dir_cntrl11.requestToDir.avg_buf_msgs     0.003229                       # Average number of messages in buffer
system.ruby.dir_cntrl11.requestToDir.avg_stall_time    11.948356                       # Average number of cycles messages are stalled in this MB
system.ruby.dir_cntrl11.responseToDir.avg_buf_msgs     0.003189                       # Average number of messages in buffer
system.ruby.dir_cntrl11.responseToDir.avg_stall_time    17.038706                       # Average number of cycles messages are stalled in this MB
system.ruby.dir_cntrl12.forwardToDir.avg_buf_msgs     0.003258                       # Average number of messages in buffer
system.ruby.dir_cntrl12.forwardToDir.avg_stall_time    13.034766                       # Average number of cycles messages are stalled in this MB
system.ruby.dir_cntrl12.requestToDir.avg_buf_msgs     0.003339                       # Average number of messages in buffer
system.ruby.dir_cntrl12.requestToDir.avg_stall_time    13.088524                       # Average number of cycles messages are stalled in this MB
system.ruby.dir_cntrl12.responseToDir.avg_buf_msgs     0.003444                       # Average number of messages in buffer
system.ruby.dir_cntrl12.responseToDir.avg_stall_time    18.201434                       # Average number of cycles messages are stalled in this MB
system.ruby.dir_cntrl13.forwardToDir.avg_buf_msgs     0.003303                       # Average number of messages in buffer
system.ruby.dir_cntrl13.forwardToDir.avg_stall_time    11.967229                       # Average number of cycles messages are stalled in this MB
system.ruby.dir_cntrl13.requestToDir.avg_buf_msgs     0.003301                       # Average number of messages in buffer
system.ruby.dir_cntrl13.requestToDir.avg_stall_time    12.017258                       # Average number of cycles messages are stalled in this MB
system.ruby.dir_cntrl13.responseToDir.avg_buf_msgs     0.003314                       # Average number of messages in buffer
system.ruby.dir_cntrl13.responseToDir.avg_stall_time    17.071489                       # Average number of cycles messages are stalled in this MB
system.ruby.dir_cntrl14.forwardToDir.avg_buf_msgs     0.003368                       # Average number of messages in buffer
system.ruby.dir_cntrl14.forwardToDir.avg_stall_time    12.054548                       # Average number of cycles messages are stalled in this MB
system.ruby.dir_cntrl14.requestToDir.avg_buf_msgs     0.003272                       # Average number of messages in buffer
system.ruby.dir_cntrl14.requestToDir.avg_stall_time    12.050116                       # Average number of cycles messages are stalled in this MB
system.ruby.dir_cntrl14.responseToDir.avg_buf_msgs     0.003328                       # Average number of messages in buffer
system.ruby.dir_cntrl14.responseToDir.avg_stall_time    17.099394                       # Average number of cycles messages are stalled in this MB
system.ruby.dir_cntrl15.forwardToDir.avg_buf_msgs     0.003206                       # Average number of messages in buffer
system.ruby.dir_cntrl15.forwardToDir.avg_stall_time    12.912751                       # Average number of cycles messages are stalled in this MB
system.ruby.dir_cntrl15.requestToDir.avg_buf_msgs     0.003422                       # Average number of messages in buffer
system.ruby.dir_cntrl15.requestToDir.avg_stall_time    13.016782                       # Average number of cycles messages are stalled in this MB
system.ruby.dir_cntrl15.responseToDir.avg_buf_msgs     0.003360                       # Average number of messages in buffer
system.ruby.dir_cntrl15.responseToDir.avg_stall_time    18.191633                       # Average number of cycles messages are stalled in this MB
system.ruby.dir_cntrl2.forwardToDir.avg_buf_msgs     0.003255                       # Average number of messages in buffer
system.ruby.dir_cntrl2.forwardToDir.avg_stall_time    11.892777                       # Average number of cycles messages are stalled in this MB
system.ruby.dir_cntrl2.requestToDir.avg_buf_msgs     0.003331                       # Average number of messages in buffer
system.ruby.dir_cntrl2.requestToDir.avg_stall_time    11.848544                       # Average number of cycles messages are stalled in this MB
system.ruby.dir_cntrl2.responseToDir.avg_buf_msgs     0.003368                       # Average number of messages in buffer
system.ruby.dir_cntrl2.responseToDir.avg_stall_time    17.253100                       # Average number of cycles messages are stalled in this MB
system.ruby.dir_cntrl3.forwardToDir.avg_buf_msgs     0.003302                       # Average number of messages in buffer
system.ruby.dir_cntrl3.forwardToDir.avg_stall_time    13.119938                       # Average number of cycles messages are stalled in this MB
system.ruby.dir_cntrl3.requestToDir.avg_buf_msgs     0.003402                       # Average number of messages in buffer
system.ruby.dir_cntrl3.requestToDir.avg_stall_time    12.934711                       # Average number of cycles messages are stalled in this MB
system.ruby.dir_cntrl3.responseToDir.avg_buf_msgs     0.003383                       # Average number of messages in buffer
system.ruby.dir_cntrl3.responseToDir.avg_stall_time    18.166282                       # Average number of cycles messages are stalled in this MB
system.ruby.dir_cntrl4.forwardToDir.avg_buf_msgs     0.003252                       # Average number of messages in buffer
system.ruby.dir_cntrl4.forwardToDir.avg_stall_time    11.939779                       # Average number of cycles messages are stalled in this MB
system.ruby.dir_cntrl4.requestToDir.avg_buf_msgs     0.003285                       # Average number of messages in buffer
system.ruby.dir_cntrl4.requestToDir.avg_stall_time    12.022116                       # Average number of cycles messages are stalled in this MB
system.ruby.dir_cntrl4.responseToDir.avg_buf_msgs     0.003327                       # Average number of messages in buffer
system.ruby.dir_cntrl4.responseToDir.avg_stall_time    17.170787                       # Average number of cycles messages are stalled in this MB
system.ruby.dir_cntrl5.forwardToDir.avg_buf_msgs     0.003336                       # Average number of messages in buffer
system.ruby.dir_cntrl5.forwardToDir.avg_stall_time    11.037079                       # Average number of cycles messages are stalled in this MB
system.ruby.dir_cntrl5.requestToDir.avg_buf_msgs     0.003385                       # Average number of messages in buffer
system.ruby.dir_cntrl5.requestToDir.avg_stall_time    10.917483                       # Average number of cycles messages are stalled in this MB
system.ruby.dir_cntrl5.responseToDir.avg_buf_msgs     0.003365                       # Average number of messages in buffer
system.ruby.dir_cntrl5.responseToDir.avg_stall_time    16.056334                       # Average number of cycles messages are stalled in this MB
system.ruby.dir_cntrl6.forwardToDir.avg_buf_msgs     0.003308                       # Average number of messages in buffer
system.ruby.dir_cntrl6.forwardToDir.avg_stall_time    11.060561                       # Average number of cycles messages are stalled in this MB
system.ruby.dir_cntrl6.requestToDir.avg_buf_msgs     0.003282                       # Average number of messages in buffer
system.ruby.dir_cntrl6.requestToDir.avg_stall_time    11.082531                       # Average number of cycles messages are stalled in this MB
system.ruby.dir_cntrl6.responseToDir.avg_buf_msgs     0.003373                       # Average number of messages in buffer
system.ruby.dir_cntrl6.responseToDir.avg_stall_time    16.122783                       # Average number of cycles messages are stalled in this MB
system.ruby.dir_cntrl7.forwardToDir.avg_buf_msgs     0.003328                       # Average number of messages in buffer
system.ruby.dir_cntrl7.forwardToDir.avg_stall_time    12.030206                       # Average number of cycles messages are stalled in this MB
system.ruby.dir_cntrl7.requestToDir.avg_buf_msgs     0.003254                       # Average number of messages in buffer
system.ruby.dir_cntrl7.requestToDir.avg_stall_time    11.926623                       # Average number of cycles messages are stalled in this MB
system.ruby.dir_cntrl7.responseToDir.avg_buf_msgs     0.003323                       # Average number of messages in buffer
system.ruby.dir_cntrl7.responseToDir.avg_stall_time    17.219841                       # Average number of cycles messages are stalled in this MB
system.ruby.dir_cntrl8.forwardToDir.avg_buf_msgs     0.003264                       # Average number of messages in buffer
system.ruby.dir_cntrl8.forwardToDir.avg_stall_time    12.021120                       # Average number of cycles messages are stalled in this MB
system.ruby.dir_cntrl8.requestToDir.avg_buf_msgs     0.003262                       # Average number of messages in buffer
system.ruby.dir_cntrl8.requestToDir.avg_stall_time    11.946713                       # Average number of cycles messages are stalled in this MB
system.ruby.dir_cntrl8.responseToDir.avg_buf_msgs     0.003387                       # Average number of messages in buffer
system.ruby.dir_cntrl8.responseToDir.avg_stall_time    17.112308                       # Average number of cycles messages are stalled in this MB
system.ruby.dir_cntrl9.forwardToDir.avg_buf_msgs     0.003329                       # Average number of messages in buffer
system.ruby.dir_cntrl9.forwardToDir.avg_stall_time    11.048363                       # Average number of cycles messages are stalled in this MB
system.ruby.dir_cntrl9.requestToDir.avg_buf_msgs     0.003345                       # Average number of messages in buffer
system.ruby.dir_cntrl9.requestToDir.avg_stall_time    11.007638                       # Average number of cycles messages are stalled in this MB
system.ruby.dir_cntrl9.responseToDir.avg_buf_msgs     0.003413                       # Average number of messages in buffer
system.ruby.dir_cntrl9.responseToDir.avg_stall_time    16.061826                       # Average number of cycles messages are stalled in this MB
system.ruby.hit_latency_hist_seqr::bucket_size            1                      
system.ruby.hit_latency_hist_seqr::max_bucket            9                      
system.ruby.hit_latency_hist_seqr::samples       159523                      
system.ruby.hit_latency_hist_seqr        |      159523    100.00%    100.00% |           0      0.00%    100.00% |           0      0.00%    100.00% |           0      0.00%    100.00% |           0      0.00%    100.00% |           0      0.00%    100.00% |           0      0.00%    100.00% |           0      0.00%    100.00% |           0      0.00%    100.00% |           0      0.00%    100.00%
system.ruby.hit_latency_hist_seqr::total       159523                      
system.ruby.l1_cntrl0.cacheMemory.demand_accesses            0                       # Number of cache demand accesses
system.ruby.l1_cntrl0.cacheMemory.demand_hits            0                       # Number of cache demand hits
system.ruby.l1_cntrl0.cacheMemory.demand_misses            0                       # Number of cache demand misses
system.ruby.l1_cntrl0.forwardFromCache.avg_buf_msgs     0.006434                       # Average number of messages in buffer
system.ruby.l1_cntrl0.forwardFromCache.avg_stall_time     1.999806                       # Average number of cycles messages are stalled in this MB
system.ruby.l1_cntrl0.mandatoryQueue.avg_buf_msgs     0.009887                       # Average number of messages in buffer
system.ruby.l1_cntrl0.mandatoryQueue.avg_stall_time     0.999905                       # Average number of cycles messages are stalled in this MB
system.ruby.l1_cntrl0.requestFromCache.avg_buf_msgs     0.006594                       # Average number of messages in buffer
system.ruby.l1_cntrl0.requestFromCache.avg_stall_time     1.999276                       # Average number of cycles messages are stalled in this MB
system.ruby.l1_cntrl0.responseFromCache.avg_buf_msgs     0.006746                       # Average number of messages in buffer
system.ruby.l1_cntrl0.responseFromCache.avg_stall_time     1.999734                       # Average number of cycles messages are stalled in this MB
system.ruby.l1_cntrl1.cacheMemory.demand_accesses            0                       # Number of cache demand accesses
system.ruby.l1_cntrl1.cacheMemory.demand_hits            0                       # Number of cache demand hits
system.ruby.l1_cntrl1.cacheMemory.demand_misses            0                       # Number of cache demand misses
system.ruby.l1_cntrl1.forwardFromCache.avg_buf_msgs     0.006594                       # Average number of messages in buffer
system.ruby.l1_cntrl1.forwardFromCache.avg_stall_time     1.999962                       # Average number of cycles messages are stalled in this MB
system.ruby.l1_cntrl1.mandatoryQueue.avg_buf_msgs     0.010113                       # Average number of messages in buffer
system.ruby.l1_cntrl1.mandatoryQueue.avg_stall_time     0.999983                       # Average number of cycles messages are stalled in this MB
system.ruby.l1_cntrl1.requestFromCache.avg_buf_msgs     0.006684                       # Average number of messages in buffer
system.ruby.l1_cntrl1.requestFromCache.avg_stall_time     1.999566                       # Average number of cycles messages are stalled in this MB
system.ruby.l1_cntrl1.responseFromCache.avg_buf_msgs     0.006948                       # Average number of messages in buffer
system.ruby.l1_cntrl1.responseFromCache.avg_stall_time     1.999846                       # Average number of cycles messages are stalled in this MB
system.ruby.l1_cntrl10.cacheMemory.demand_accesses            0                       # Number of cache demand accesses
system.ruby.l1_cntrl10.cacheMemory.demand_hits            0                       # Number of cache demand hits
system.ruby.l1_cntrl10.cacheMemory.demand_misses            0                       # Number of cache demand misses
system.ruby.l1_cntrl10.forwardFromCache.avg_buf_msgs     0.006542                       # Average number of messages in buffer
system.ruby.l1_cntrl10.forwardFromCache.avg_stall_time     1.999876                       # Average number of cycles messages are stalled in this MB
system.ruby.l1_cntrl10.mandatoryQueue.avg_buf_msgs     0.009793                       # Average number of messages in buffer
system.ruby.l1_cntrl10.mandatoryQueue.avg_stall_time     0.999988                       # Average number of cycles messages are stalled in this MB
system.ruby.l1_cntrl10.requestFromCache.avg_buf_msgs     0.006500                       # Average number of messages in buffer
system.ruby.l1_cntrl10.requestFromCache.avg_stall_time     1.999972                       # Average number of cycles messages are stalled in this MB
system.ruby.l1_cntrl10.responseFromCache.avg_buf_msgs     0.006544                       # Average number of messages in buffer
system.ruby.l1_cntrl10.responseFromCache.avg_stall_time     1.999138                       # Average number of cycles messages are stalled in this MB
system.ruby.l1_cntrl11.cacheMemory.demand_accesses            0                       # Number of cache demand accesses
system.ruby.l1_cntrl11.cacheMemory.demand_hits            0                       # Number of cache demand hits
system.ruby.l1_cntrl11.cacheMemory.demand_misses            0                       # Number of cache demand misses
system.ruby.l1_cntrl11.forwardFromCache.avg_buf_msgs     0.006548                       # Average number of messages in buffer
system.ruby.l1_cntrl11.forwardFromCache.avg_stall_time     1.993870                       # Average number of cycles messages are stalled in this MB
system.ruby.l1_cntrl11.mandatoryQueue.avg_buf_msgs     0.009867                       # Average number of messages in buffer
system.ruby.l1_cntrl11.mandatoryQueue.avg_stall_time     0.999757                       # Average number of cycles messages are stalled in this MB
system.ruby.l1_cntrl11.requestFromCache.avg_buf_msgs     0.006562                       # Average number of messages in buffer
system.ruby.l1_cntrl11.requestFromCache.avg_stall_time     1.998896                       # Average number of cycles messages are stalled in this MB
system.ruby.l1_cntrl11.responseFromCache.avg_buf_msgs     0.006624                       # Average number of messages in buffer
system.ruby.l1_cntrl11.responseFromCache.avg_stall_time     1.999510                       # Average number of cycles messages are stalled in this MB
system.ruby.l1_cntrl12.cacheMemory.demand_accesses            0                       # Number of cache demand accesses
system.ruby.l1_cntrl12.cacheMemory.demand_hits            0                       # Number of cache demand hits
system.ruby.l1_cntrl12.cacheMemory.demand_misses            0                       # Number of cache demand misses
system.ruby.l1_cntrl12.forwardFromCache.avg_buf_msgs     0.006666                       # Average number of messages in buffer
system.ruby.l1_cntrl12.forwardFromCache.avg_stall_time     1.999520                       # Average number of cycles messages are stalled in this MB
system.ruby.l1_cntrl12.mandatoryQueue.avg_buf_msgs     0.009875                       # Average number of messages in buffer
system.ruby.l1_cntrl12.mandatoryQueue.avg_stall_time     0.999874                       # Average number of cycles messages are stalled in this MB
system.ruby.l1_cntrl12.requestFromCache.avg_buf_msgs     0.006572                       # Average number of messages in buffer
system.ruby.l1_cntrl12.requestFromCache.avg_stall_time     1.999744                       # Average number of cycles messages are stalled in this MB
system.ruby.l1_cntrl12.responseFromCache.avg_buf_msgs     0.006512                       # Average number of messages in buffer
system.ruby.l1_cntrl12.responseFromCache.avg_stall_time     1.998860                       # Average number of cycles messages are stalled in this MB
system.ruby.l1_cntrl13.cacheMemory.demand_accesses            0                       # Number of cache demand accesses
system.ruby.l1_cntrl13.cacheMemory.demand_hits            0                       # Number of cache demand hits
system.ruby.l1_cntrl13.cacheMemory.demand_misses            0                       # Number of cache demand misses
system.ruby.l1_cntrl13.forwardFromCache.avg_buf_msgs     0.006770                       # Average number of messages in buffer
system.ruby.l1_cntrl13.forwardFromCache.avg_stall_time     1.999264                       # Average number of cycles messages are stalled in this MB
system.ruby.l1_cntrl13.mandatoryQueue.avg_buf_msgs     0.010282                       # Average number of messages in buffer
system.ruby.l1_cntrl13.mandatoryQueue.avg_stall_time     0.999864                       # Average number of cycles messages are stalled in this MB
system.ruby.l1_cntrl13.requestFromCache.avg_buf_msgs     0.006728                       # Average number of messages in buffer
system.ruby.l1_cntrl13.requestFromCache.avg_stall_time     1.999606                       # Average number of cycles messages are stalled in this MB
system.ruby.l1_cntrl13.responseFromCache.avg_buf_msgs     0.007066                       # Average number of messages in buffer
system.ruby.l1_cntrl13.responseFromCache.avg_stall_time     1.999724                       # Average number of cycles messages are stalled in this MB
system.ruby.l1_cntrl14.cacheMemory.demand_accesses            0                       # Number of cache demand accesses
system.ruby.l1_cntrl14.cacheMemory.demand_hits            0                       # Number of cache demand hits
system.ruby.l1_cntrl14.cacheMemory.demand_misses            0                       # Number of cache demand misses
system.ruby.l1_cntrl14.forwardFromCache.avg_buf_msgs     0.006898                       # Average number of messages in buffer
system.ruby.l1_cntrl14.forwardFromCache.avg_stall_time     1.999248                       # Average number of cycles messages are stalled in this MB
system.ruby.l1_cntrl14.mandatoryQueue.avg_buf_msgs     0.010075                       # Average number of messages in buffer
system.ruby.l1_cntrl14.mandatoryQueue.avg_stall_time     0.999982                       # Average number of cycles messages are stalled in this MB
system.ruby.l1_cntrl14.requestFromCache.avg_buf_msgs     0.006664                       # Average number of messages in buffer
system.ruby.l1_cntrl14.requestFromCache.avg_stall_time     1.999762                       # Average number of cycles messages are stalled in this MB
system.ruby.l1_cntrl14.responseFromCache.avg_buf_msgs     0.006588                       # Average number of messages in buffer
system.ruby.l1_cntrl14.responseFromCache.avg_stall_time     1.999960                       # Average number of cycles messages are stalled in this MB
system.ruby.l1_cntrl15.cacheMemory.demand_accesses            0                       # Number of cache demand accesses
system.ruby.l1_cntrl15.cacheMemory.demand_hits            0                       # Number of cache demand hits
system.ruby.l1_cntrl15.cacheMemory.demand_misses            0                       # Number of cache demand misses
system.ruby.l1_cntrl15.forwardFromCache.avg_buf_msgs     0.006628                       # Average number of messages in buffer
system.ruby.l1_cntrl15.forwardFromCache.avg_stall_time     1.999704                       # Average number of cycles messages are stalled in this MB
system.ruby.l1_cntrl15.mandatoryQueue.avg_buf_msgs     0.009903                       # Average number of messages in buffer
system.ruby.l1_cntrl15.mandatoryQueue.avg_stall_time     0.999874                       # Average number of cycles messages are stalled in this MB
system.ruby.l1_cntrl15.requestFromCache.avg_buf_msgs     0.006504                       # Average number of messages in buffer
system.ruby.l1_cntrl15.requestFromCache.avg_stall_time     1.999744                       # Average number of cycles messages are stalled in this MB
system.ruby.l1_cntrl15.responseFromCache.avg_buf_msgs     0.006672                       # Average number of messages in buffer
system.ruby.l1_cntrl15.responseFromCache.avg_stall_time     1.999580                       # Average number of cycles messages are stalled in this MB
system.ruby.l1_cntrl2.cacheMemory.demand_accesses            0                       # Number of cache demand accesses
system.ruby.l1_cntrl2.cacheMemory.demand_hits            0                       # Number of cache demand hits
system.ruby.l1_cntrl2.cacheMemory.demand_misses            0                       # Number of cache demand misses
system.ruby.l1_cntrl2.forwardFromCache.avg_buf_msgs     0.006472                       # Average number of messages in buffer
system.ruby.l1_cntrl2.forwardFromCache.avg_stall_time     1.999496                       # Average number of cycles messages are stalled in this MB
system.ruby.l1_cntrl2.mandatoryQueue.avg_buf_msgs     0.010023                       # Average number of messages in buffer
system.ruby.l1_cntrl2.mandatoryQueue.avg_stall_time     0.999914                       # Average number of cycles messages are stalled in this MB
system.ruby.l1_cntrl2.requestFromCache.avg_buf_msgs     0.006794                       # Average number of messages in buffer
system.ruby.l1_cntrl2.requestFromCache.avg_stall_time     1.999824                       # Average number of cycles messages are stalled in this MB
system.ruby.l1_cntrl2.responseFromCache.avg_buf_msgs     0.006780                       # Average number of messages in buffer
system.ruby.l1_cntrl2.responseFromCache.avg_stall_time     1.999680                       # Average number of cycles messages are stalled in this MB
system.ruby.l1_cntrl3.cacheMemory.demand_accesses            0                       # Number of cache demand accesses
system.ruby.l1_cntrl3.cacheMemory.demand_hits            0                       # Number of cache demand hits
system.ruby.l1_cntrl3.cacheMemory.demand_misses            0                       # Number of cache demand misses
system.ruby.l1_cntrl3.forwardFromCache.avg_buf_msgs     0.006566                       # Average number of messages in buffer
system.ruby.l1_cntrl3.forwardFromCache.avg_stall_time     1.997474                       # Average number of cycles messages are stalled in this MB
system.ruby.l1_cntrl3.mandatoryQueue.avg_buf_msgs     0.009814                       # Average number of messages in buffer
system.ruby.l1_cntrl3.mandatoryQueue.avg_stall_time     0.999961                       # Average number of cycles messages are stalled in this MB
system.ruby.l1_cntrl3.requestFromCache.avg_buf_msgs     0.006534                       # Average number of messages in buffer
system.ruby.l1_cntrl3.requestFromCache.avg_stall_time     1.999568                       # Average number of cycles messages are stalled in this MB
system.ruby.l1_cntrl3.responseFromCache.avg_buf_msgs     0.006528                       # Average number of messages in buffer
system.ruby.l1_cntrl3.responseFromCache.avg_stall_time     1.999918                       # Average number of cycles messages are stalled in this MB
system.ruby.l1_cntrl4.cacheMemory.demand_accesses            0                       # Number of cache demand accesses
system.ruby.l1_cntrl4.cacheMemory.demand_hits            0                       # Number of cache demand hits
system.ruby.l1_cntrl4.cacheMemory.demand_misses            0                       # Number of cache demand misses
system.ruby.l1_cntrl4.forwardFromCache.avg_buf_msgs     0.006408                       # Average number of messages in buffer
system.ruby.l1_cntrl4.forwardFromCache.avg_stall_time     1.999948                       # Average number of cycles messages are stalled in this MB
system.ruby.l1_cntrl4.mandatoryQueue.avg_buf_msgs     0.009798                       # Average number of messages in buffer
system.ruby.l1_cntrl4.mandatoryQueue.avg_stall_time     0.999976                       # Average number of cycles messages are stalled in this MB
system.ruby.l1_cntrl4.requestFromCache.avg_buf_msgs     0.006538                       # Average number of messages in buffer
system.ruby.l1_cntrl4.requestFromCache.avg_stall_time     1.999220                       # Average number of cycles messages are stalled in this MB
system.ruby.l1_cntrl4.responseFromCache.avg_buf_msgs     0.006650                       # Average number of messages in buffer
system.ruby.l1_cntrl4.responseFromCache.avg_stall_time     1.999692                       # Average number of cycles messages are stalled in this MB
system.ruby.l1_cntrl5.cacheMemory.demand_accesses            0                       # Number of cache demand accesses
system.ruby.l1_cntrl5.cacheMemory.demand_hits            0                       # Number of cache demand hits
system.ruby.l1_cntrl5.cacheMemory.demand_misses            0                       # Number of cache demand misses
system.ruby.l1_cntrl5.forwardFromCache.avg_buf_msgs     0.006622                       # Average number of messages in buffer
system.ruby.l1_cntrl5.forwardFromCache.avg_stall_time     1.998666                       # Average number of cycles messages are stalled in this MB
system.ruby.l1_cntrl5.mandatoryQueue.avg_buf_msgs     0.009882                       # Average number of messages in buffer
system.ruby.l1_cntrl5.mandatoryQueue.avg_stall_time     0.999494                       # Average number of cycles messages are stalled in this MB
system.ruby.l1_cntrl5.requestFromCache.avg_buf_msgs     0.006624                       # Average number of messages in buffer
system.ruby.l1_cntrl5.requestFromCache.avg_stall_time     1.998984                       # Average number of cycles messages are stalled in this MB
system.ruby.l1_cntrl5.responseFromCache.avg_buf_msgs     0.006518                       # Average number of messages in buffer
system.ruby.l1_cntrl5.responseFromCache.avg_stall_time     1.998838                       # Average number of cycles messages are stalled in this MB
system.ruby.l1_cntrl6.cacheMemory.demand_accesses            0                       # Number of cache demand accesses
system.ruby.l1_cntrl6.cacheMemory.demand_hits            0                       # Number of cache demand hits
system.ruby.l1_cntrl6.cacheMemory.demand_misses            0                       # Number of cache demand misses
system.ruby.l1_cntrl6.forwardFromCache.avg_buf_msgs     0.006678                       # Average number of messages in buffer
system.ruby.l1_cntrl6.forwardFromCache.avg_stall_time     1.999574                       # Average number of cycles messages are stalled in this MB
system.ruby.l1_cntrl6.mandatoryQueue.avg_buf_msgs     0.010046                       # Average number of messages in buffer
system.ruby.l1_cntrl6.mandatoryQueue.avg_stall_time     0.999900                       # Average number of cycles messages are stalled in this MB
system.ruby.l1_cntrl6.requestFromCache.avg_buf_msgs     0.006724                       # Average number of messages in buffer
system.ruby.l1_cntrl6.requestFromCache.avg_stall_time     1.999796                       # Average number of cycles messages are stalled in this MB
system.ruby.l1_cntrl6.responseFromCache.avg_buf_msgs     0.006690                       # Average number of messages in buffer
system.ruby.l1_cntrl6.responseFromCache.avg_stall_time     1.999386                       # Average number of cycles messages are stalled in this MB
system.ruby.l1_cntrl7.cacheMemory.demand_accesses            0                       # Number of cache demand accesses
system.ruby.l1_cntrl7.cacheMemory.demand_hits            0                       # Number of cache demand hits
system.ruby.l1_cntrl7.cacheMemory.demand_misses            0                       # Number of cache demand misses
system.ruby.l1_cntrl7.forwardFromCache.avg_buf_msgs     0.006872                       # Average number of messages in buffer
system.ruby.l1_cntrl7.forwardFromCache.avg_stall_time     1.999580                       # Average number of cycles messages are stalled in this MB
system.ruby.l1_cntrl7.mandatoryQueue.avg_buf_msgs     0.010158                       # Average number of messages in buffer
system.ruby.l1_cntrl7.mandatoryQueue.avg_stall_time     0.999874                       # Average number of cycles messages are stalled in this MB
system.ruby.l1_cntrl7.requestFromCache.avg_buf_msgs     0.006664                       # Average number of messages in buffer
system.ruby.l1_cntrl7.requestFromCache.avg_stall_time     1.999744                       # Average number of cycles messages are stalled in this MB
system.ruby.l1_cntrl7.responseFromCache.avg_buf_msgs     0.006780                       # Average number of messages in buffer
system.ruby.l1_cntrl7.responseFromCache.avg_stall_time     1.999720                       # Average number of cycles messages are stalled in this MB
system.ruby.l1_cntrl8.cacheMemory.demand_accesses            0                       # Number of cache demand accesses
system.ruby.l1_cntrl8.cacheMemory.demand_hits            0                       # Number of cache demand hits
system.ruby.l1_cntrl8.cacheMemory.demand_misses            0                       # Number of cache demand misses
system.ruby.l1_cntrl8.forwardFromCache.avg_buf_msgs     0.006594                       # Average number of messages in buffer
system.ruby.l1_cntrl8.forwardFromCache.avg_stall_time     1.999678                       # Average number of cycles messages are stalled in this MB
system.ruby.l1_cntrl8.mandatoryQueue.avg_buf_msgs     0.009974                       # Average number of messages in buffer
system.ruby.l1_cntrl8.mandatoryQueue.avg_stall_time     0.999967                       # Average number of cycles messages are stalled in this MB
system.ruby.l1_cntrl8.requestFromCache.avg_buf_msgs     0.006694                       # Average number of messages in buffer
system.ruby.l1_cntrl8.requestFromCache.avg_stall_time     1.999930                       # Average number of cycles messages are stalled in this MB
system.ruby.l1_cntrl8.responseFromCache.avg_buf_msgs     0.006660                       # Average number of messages in buffer
system.ruby.l1_cntrl8.responseFromCache.avg_stall_time     1.999792                       # Average number of cycles messages are stalled in this MB
system.ruby.l1_cntrl9.cacheMemory.demand_accesses            0                       # Number of cache demand accesses
system.ruby.l1_cntrl9.cacheMemory.demand_hits            0                       # Number of cache demand hits
system.ruby.l1_cntrl9.cacheMemory.demand_misses            0                       # Number of cache demand misses
system.ruby.l1_cntrl9.forwardFromCache.avg_buf_msgs     0.006604                       # Average number of messages in buffer
system.ruby.l1_cntrl9.forwardFromCache.avg_stall_time     1.999394                       # Average number of cycles messages are stalled in this MB
system.ruby.l1_cntrl9.mandatoryQueue.avg_buf_msgs     0.010034                       # Average number of messages in buffer
system.ruby.l1_cntrl9.mandatoryQueue.avg_stall_time     0.999842                       # Average number of cycles messages are stalled in this MB
system.ruby.l1_cntrl9.requestFromCache.avg_buf_msgs     0.006758                       # Average number of messages in buffer
system.ruby.l1_cntrl9.requestFromCache.avg_stall_time     1.998070                       # Average number of cycles messages are stalled in this MB
system.ruby.l1_cntrl9.responseFromCache.avg_buf_msgs     0.006706                       # Average number of messages in buffer
system.ruby.l1_cntrl9.responseFromCache.avg_stall_time     1.999680                       # Average number of cycles messages are stalled in this MB
system.ruby.latency_hist_seqr::bucket_size            1                      
system.ruby.latency_hist_seqr::max_bucket            9                      
system.ruby.latency_hist_seqr::samples         159523                      
system.ruby.latency_hist_seqr            |      159523    100.00%    100.00% |           0      0.00%    100.00% |           0      0.00%    100.00% |           0      0.00%    100.00% |           0      0.00%    100.00% |           0      0.00%    100.00% |           0      0.00%    100.00% |           0      0.00%    100.00% |           0      0.00%    100.00% |           0      0.00%    100.00%
system.ruby.latency_hist_seqr::total           159523                      
system.ruby.network.average_flit_latency    11.666751                      
system.ruby.network.average_flit_network_latency     9.666751                      
system.ruby.network.average_flit_queueing_latency            2                      
system.ruby.network.average_flit_vnet_latency |    7.997871                       |    8.002814                       |   10.327133                      
system.ruby.network.average_flit_vqueue_latency |           2                       |           2                       |           2                      
system.ruby.network.average_hops             2.502309                      
system.ruby.network.average_packet_latency    11.729584                      
system.ruby.network.average_packet_network_latency     9.729584                      
system.ruby.network.average_packet_queueing_latency            2                      
system.ruby.network.average_packet_vnet_latency |    7.997871                       |    8.002814                       |   13.156044                      
system.ruby.network.average_packet_vqueue_latency |           2                       |           2                       |           2                      
system.ruby.network.avg_link_utilization     1.681812                      
system.ruby.network.avg_vc_load          |    0.196899     11.71%     11.71% |    0.015116      0.90%     12.61% |    0.013272      0.79%     13.40% |    0.013262      0.79%     14.18% |    0.196613     11.69%     25.87% |    0.015019      0.89%     26.77% |    0.013244      0.79%     27.56% |    0.013231      0.79%     28.34% |    0.982260     58.40%     86.75% |    0.088921      5.29%     92.03% |    0.067105      3.99%     96.02% |    0.066870      3.98%    100.00%
system.ruby.network.avg_vc_load::total       1.681812                      
system.ruby.network.ext_in_link_utilization       373547                      
system.ruby.network.ext_out_link_utilization       373541                      
system.ruby.network.flit_network_latency |      424439                       |      423733                       |     2762756                      
system.ruby.network.flit_queueing_latency |      106138                       |      105896                       |      535048                      
system.ruby.network.flits_injected       |       53069     14.21%     14.21% |       52948     14.17%     28.38% |      267530     71.62%    100.00%
system.ruby.network.flits_injected::total       373547                      
system.ruby.network.flits_received       |       53069     14.21%     14.21% |       52948     14.17%     28.38% |      267524     71.62%    100.00%
system.ruby.network.flits_received::total       373541                      
system.ruby.network.int_link_utilization       934724                      
system.ruby.network.packet_network_latency |      424439                       |      423733                       |      703901                      
system.ruby.network.packet_queueing_latency |      106138                       |      105896                       |      107008                      
system.ruby.network.packets_injected     |       53069     33.27%     33.27% |       52948     33.19%     66.46% |       53506     33.54%    100.00%
system.ruby.network.packets_injected::total       159523                      
system.ruby.network.packets_received     |       53069     33.27%     33.27% |       52948     33.19%     66.46% |       53504     33.54%    100.00%
system.ruby.network.packets_received::total       159521                      
system.ruby.network.routers00.buffer_reads        58895                      
system.ruby.network.routers00.buffer_writes        58895                      
system.ruby.network.routers00.crossbar_activity        58895                      
system.ruby.network.routers00.sw_input_arbiter_activity        59108                      
system.ruby.network.routers00.sw_output_arbiter_activity        58895                      
system.ruby.network.routers01.buffer_reads        81654                      
system.ruby.network.routers01.buffer_writes        81654                      
system.ruby.network.routers01.crossbar_activity        81654                      
system.ruby.network.routers01.sw_input_arbiter_activity        82218                      
system.ruby.network.routers01.sw_output_arbiter_activity        81654                      
system.ruby.network.routers02.buffer_reads        81586                      
system.ruby.network.routers02.buffer_writes        81586                      
system.ruby.network.routers02.crossbar_activity        81586                      
system.ruby.network.routers02.sw_input_arbiter_activity        82187                      
system.ruby.network.routers02.sw_output_arbiter_activity        81586                      
system.ruby.network.routers03.buffer_reads        57916                      
system.ruby.network.routers03.buffer_writes        57916                      
system.ruby.network.routers03.crossbar_activity        57916                      
system.ruby.network.routers03.sw_input_arbiter_activity        58141                      
system.ruby.network.routers03.sw_output_arbiter_activity        57916                      
system.ruby.network.routers04.buffer_reads        81915                      
system.ruby.network.routers04.buffer_writes        81915                      
system.ruby.network.routers04.crossbar_activity        81915                      
system.ruby.network.routers04.sw_input_arbiter_activity        82577                      
system.ruby.network.routers04.sw_output_arbiter_activity        81915                      
system.ruby.network.routers05.buffer_reads       104788                      
system.ruby.network.routers05.buffer_writes       104788                      
system.ruby.network.routers05.crossbar_activity       104788                      
system.ruby.network.routers05.sw_input_arbiter_activity       105661                      
system.ruby.network.routers05.sw_output_arbiter_activity       104788                      
system.ruby.network.routers06.buffer_reads       105129                      
system.ruby.network.routers06.buffer_writes       105129                      
system.ruby.network.routers06.crossbar_activity       105129                      
system.ruby.network.routers06.sw_input_arbiter_activity       106197                      
system.ruby.network.routers06.sw_output_arbiter_activity       105129                      
system.ruby.network.routers07.buffer_reads        81607                      
system.ruby.network.routers07.buffer_writes        81607                      
system.ruby.network.routers07.crossbar_activity        81607                      
system.ruby.network.routers07.sw_input_arbiter_activity        82118                      
system.ruby.network.routers07.sw_output_arbiter_activity        81607                      
system.ruby.network.routers08.buffer_reads        82234                      
system.ruby.network.routers08.buffer_writes        82234                      
system.ruby.network.routers08.crossbar_activity        82234                      
system.ruby.network.routers08.sw_input_arbiter_activity        82964                      
system.ruby.network.routers08.sw_output_arbiter_activity        82234                      
system.ruby.network.routers09.buffer_reads       104756                      
system.ruby.network.routers09.buffer_writes       104756                      
system.ruby.network.routers09.crossbar_activity       104756                      
system.ruby.network.routers09.sw_input_arbiter_activity       105826                      
system.ruby.network.routers09.sw_output_arbiter_activity       104756                      
system.ruby.network.routers10.buffer_reads       104808                      
system.ruby.network.routers10.buffer_writes       104808                      
system.ruby.network.routers10.crossbar_activity       104808                      
system.ruby.network.routers10.sw_input_arbiter_activity       105789                      
system.ruby.network.routers10.sw_output_arbiter_activity       104808                      
system.ruby.network.routers11.buffer_reads        81153                      
system.ruby.network.routers11.buffer_writes        81153                      
system.ruby.network.routers11.crossbar_activity        81153                      
system.ruby.network.routers11.sw_input_arbiter_activity        81814                      
system.ruby.network.routers11.sw_output_arbiter_activity        81153                      
system.ruby.network.routers12.buffer_reads        58927                      
system.ruby.network.routers12.buffer_writes        58927                      
system.ruby.network.routers12.crossbar_activity        58927                      
system.ruby.network.routers12.sw_input_arbiter_activity        59162                      
system.ruby.network.routers12.sw_output_arbiter_activity        58927                      
system.ruby.network.routers13.buffer_reads        82356                      
system.ruby.network.routers13.buffer_writes        82356                      
system.ruby.network.routers13.crossbar_activity        82356                      
system.ruby.network.routers13.sw_input_arbiter_activity        83031                      
system.ruby.network.routers13.sw_output_arbiter_activity        82356                      
system.ruby.network.routers14.buffer_reads        82158                      
system.ruby.network.routers14.buffer_writes        82158                      
system.ruby.network.routers14.crossbar_activity        82158                      
system.ruby.network.routers14.sw_input_arbiter_activity        82744                      
system.ruby.network.routers14.sw_output_arbiter_activity        82158                      
system.ruby.network.routers15.buffer_reads        58386                      
system.ruby.network.routers15.buffer_writes        58386                      
system.ruby.network.routers15.crossbar_activity        58386                      
system.ruby.network.routers15.sw_input_arbiter_activity        58597                      
system.ruby.network.routers15.sw_output_arbiter_activity        58386                      
system.ruby.outstanding_req_hist_seqr::bucket_size            1                      
system.ruby.outstanding_req_hist_seqr::max_bucket            9                      
system.ruby.outstanding_req_hist_seqr::samples       159524                      
system.ruby.outstanding_req_hist_seqr::mean            1                      
system.ruby.outstanding_req_hist_seqr::gmean            1                      
system.ruby.outstanding_req_hist_seqr    |           0      0.00%      0.00% |      159524    100.00%    100.00% |           0      0.00%    100.00% |           0      0.00%    100.00% |           0      0.00%    100.00% |           0      0.00%    100.00% |           0      0.00%    100.00% |           0      0.00%    100.00% |           0      0.00%    100.00% |           0      0.00%    100.00%
system.ruby.outstanding_req_hist_seqr::total       159524                      
system.cpu14.power_state.pwrStateResidencyTicks::UNDEFINED      1000000                       # Cumulative time (in ticks) in various power states
system.cpu15.power_state.pwrStateResidencyTicks::UNDEFINED      1000000                       # Cumulative time (in ticks) in various power states
system.cpu10.power_state.pwrStateResidencyTicks::UNDEFINED      1000000                       # Cumulative time (in ticks) in various power states
system.cpu11.power_state.pwrStateResidencyTicks::UNDEFINED      1000000                       # Cumulative time (in ticks) in various power states
system.cpu12.power_state.pwrStateResidencyTicks::UNDEFINED      1000000                       # Cumulative time (in ticks) in various power states
system.cpu13.power_state.pwrStateResidencyTicks::UNDEFINED      1000000                       # Cumulative time (in ticks) in various power states
system.ruby.l1_cntrl9.sequencer.power_state.pwrStateResidencyTicks::UNDEFINED      1000000                       # Cumulative time (in ticks) in various power states
system.ruby.l1_cntrl9.power_state.pwrStateResidencyTicks::UNDEFINED      1000000                       # Cumulative time (in ticks) in various power states
system.ruby.l1_cntrl4.sequencer.power_state.pwrStateResidencyTicks::UNDEFINED      1000000                       # Cumulative time (in ticks) in various power states
system.ruby.l1_cntrl4.power_state.pwrStateResidencyTicks::UNDEFINED      1000000                       # Cumulative time (in ticks) in various power states
system.ruby.l1_cntrl5.sequencer.power_state.pwrStateResidencyTicks::UNDEFINED      1000000                       # Cumulative time (in ticks) in various power states
system.ruby.l1_cntrl5.power_state.pwrStateResidencyTicks::UNDEFINED      1000000                       # Cumulative time (in ticks) in various power states
system.ruby.l1_cntrl6.sequencer.power_state.pwrStateResidencyTicks::UNDEFINED      1000000                       # Cumulative time (in ticks) in various power states
system.ruby.l1_cntrl6.power_state.pwrStateResidencyTicks::UNDEFINED      1000000                       # Cumulative time (in ticks) in various power states
system.ruby.l1_cntrl7.sequencer.power_state.pwrStateResidencyTicks::UNDEFINED      1000000                       # Cumulative time (in ticks) in various power states
system.ruby.l1_cntrl7.power_state.pwrStateResidencyTicks::UNDEFINED      1000000                       # Cumulative time (in ticks) in various power states
system.ruby.l1_cntrl0.sequencer.power_state.pwrStateResidencyTicks::UNDEFINED      1000000                       # Cumulative time (in ticks) in various power states
system.ruby.l1_cntrl0.power_state.pwrStateResidencyTicks::UNDEFINED      1000000                       # Cumulative time (in ticks) in various power states
system.ruby.l1_cntrl1.sequencer.power_state.pwrStateResidencyTicks::UNDEFINED      1000000                       # Cumulative time (in ticks) in various power states
system.ruby.l1_cntrl1.power_state.pwrStateResidencyTicks::UNDEFINED      1000000                       # Cumulative time (in ticks) in various power states
system.ruby.l1_cntrl2.sequencer.power_state.pwrStateResidencyTicks::UNDEFINED      1000000                       # Cumulative time (in ticks) in various power states
system.ruby.l1_cntrl2.power_state.pwrStateResidencyTicks::UNDEFINED      1000000                       # Cumulative time (in ticks) in various power states
system.ruby.l1_cntrl3.sequencer.power_state.pwrStateResidencyTicks::UNDEFINED      1000000                       # Cumulative time (in ticks) in various power states
system.ruby.l1_cntrl3.power_state.pwrStateResidencyTicks::UNDEFINED      1000000                       # Cumulative time (in ticks) in various power states
system.ruby.l1_cntrl8.sequencer.power_state.pwrStateResidencyTicks::UNDEFINED      1000000                       # Cumulative time (in ticks) in various power states
system.ruby.l1_cntrl8.power_state.pwrStateResidencyTicks::UNDEFINED      1000000                       # Cumulative time (in ticks) in various power states
system.ruby.clk_domain.clock                        1                       # Clock period in ticks
system.ruby.power_state.pwrStateResidencyTicks::UNDEFINED      1000000                       # Cumulative time (in ticks) in various power states
system.ruby.l1_cntrl14.sequencer.power_state.pwrStateResidencyTicks::UNDEFINED      1000000                       # Cumulative time (in ticks) in various power states
system.ruby.l1_cntrl14.power_state.pwrStateResidencyTicks::UNDEFINED      1000000                       # Cumulative time (in ticks) in various power states
system.ruby.l1_cntrl15.sequencer.power_state.pwrStateResidencyTicks::UNDEFINED      1000000                       # Cumulative time (in ticks) in various power states
system.ruby.l1_cntrl15.power_state.pwrStateResidencyTicks::UNDEFINED      1000000                       # Cumulative time (in ticks) in various power states
system.ruby.l1_cntrl12.sequencer.power_state.pwrStateResidencyTicks::UNDEFINED      1000000                       # Cumulative time (in ticks) in various power states
system.ruby.l1_cntrl12.power_state.pwrStateResidencyTicks::UNDEFINED      1000000                       # Cumulative time (in ticks) in various power states
system.ruby.l1_cntrl13.sequencer.power_state.pwrStateResidencyTicks::UNDEFINED      1000000                       # Cumulative time (in ticks) in various power states
system.ruby.l1_cntrl13.power_state.pwrStateResidencyTicks::UNDEFINED      1000000                       # Cumulative time (in ticks) in various power states
system.ruby.l1_cntrl10.sequencer.power_state.pwrStateResidencyTicks::UNDEFINED      1000000                       # Cumulative time (in ticks) in various power states
system.ruby.l1_cntrl10.power_state.pwrStateResidencyTicks::UNDEFINED      1000000                       # Cumulative time (in ticks) in various power states
system.ruby.l1_cntrl11.sequencer.power_state.pwrStateResidencyTicks::UNDEFINED      1000000                       # Cumulative time (in ticks) in various power states
system.ruby.l1_cntrl11.power_state.pwrStateResidencyTicks::UNDEFINED      1000000                       # Cumulative time (in ticks) in various power states
system.ruby.network.int_links19.credit_link.power_state.pwrStateResidencyTicks::UNDEFINED      1000000                       # Cumulative time (in ticks) in various power states
system.ruby.network.int_links19.network_link.power_state.pwrStateResidencyTicks::UNDEFINED      1000000                       # Cumulative time (in ticks) in various power states
system.ruby.network.int_links18.credit_link.power_state.pwrStateResidencyTicks::UNDEFINED      1000000                       # Cumulative time (in ticks) in various power states
system.ruby.network.int_links18.network_link.power_state.pwrStateResidencyTicks::UNDEFINED      1000000                       # Cumulative time (in ticks) in various power states
system.ruby.network.int_links15.credit_link.power_state.pwrStateResidencyTicks::UNDEFINED      1000000                       # Cumulative time (in ticks) in various power states
system.ruby.network.int_links15.network_link.power_state.pwrStateResidencyTicks::UNDEFINED      1000000                       # Cumulative time (in ticks) in various power states
system.ruby.network.int_links14.credit_link.power_state.pwrStateResidencyTicks::UNDEFINED      1000000                       # Cumulative time (in ticks) in various power states
system.ruby.network.int_links14.network_link.power_state.pwrStateResidencyTicks::UNDEFINED      1000000                       # Cumulative time (in ticks) in various power states
system.ruby.network.int_links17.credit_link.power_state.pwrStateResidencyTicks::UNDEFINED      1000000                       # Cumulative time (in ticks) in various power states
system.ruby.network.int_links17.network_link.power_state.pwrStateResidencyTicks::UNDEFINED      1000000                       # Cumulative time (in ticks) in various power states
system.ruby.network.int_links16.credit_link.power_state.pwrStateResidencyTicks::UNDEFINED      1000000                       # Cumulative time (in ticks) in various power states
system.ruby.network.int_links16.network_link.power_state.pwrStateResidencyTicks::UNDEFINED      1000000                       # Cumulative time (in ticks) in various power states
system.ruby.network.int_links11.credit_link.power_state.pwrStateResidencyTicks::UNDEFINED      1000000                       # Cumulative time (in ticks) in various power states
system.ruby.network.int_links11.network_link.power_state.pwrStateResidencyTicks::UNDEFINED      1000000                       # Cumulative time (in ticks) in various power states
system.ruby.network.int_links10.credit_link.power_state.pwrStateResidencyTicks::UNDEFINED      1000000                       # Cumulative time (in ticks) in various power states
system.ruby.network.int_links10.network_link.power_state.pwrStateResidencyTicks::UNDEFINED      1000000                       # Cumulative time (in ticks) in various power states
system.ruby.network.int_links13.credit_link.power_state.pwrStateResidencyTicks::UNDEFINED      1000000                       # Cumulative time (in ticks) in various power states
system.ruby.network.int_links13.network_link.power_state.pwrStateResidencyTicks::UNDEFINED      1000000                       # Cumulative time (in ticks) in various power states
system.ruby.network.int_links12.credit_link.power_state.pwrStateResidencyTicks::UNDEFINED      1000000                       # Cumulative time (in ticks) in various power states
system.ruby.network.int_links12.network_link.power_state.pwrStateResidencyTicks::UNDEFINED      1000000                       # Cumulative time (in ticks) in various power states
system.ruby.network.power_state.pwrStateResidencyTicks::UNDEFINED      1000000                       # Cumulative time (in ticks) in various power states
system.ruby.network.ext_links9.credit_links0.power_state.pwrStateResidencyTicks::UNDEFINED      1000000                       # Cumulative time (in ticks) in various power states
system.ruby.network.ext_links9.credit_links1.power_state.pwrStateResidencyTicks::UNDEFINED      1000000                       # Cumulative time (in ticks) in various power states
system.ruby.network.ext_links9.network_links1.power_state.pwrStateResidencyTicks::UNDEFINED      1000000                       # Cumulative time (in ticks) in various power states
system.ruby.network.ext_links9.network_links0.power_state.pwrStateResidencyTicks::UNDEFINED      1000000                       # Cumulative time (in ticks) in various power states
system.ruby.network.ext_links8.credit_links0.power_state.pwrStateResidencyTicks::UNDEFINED      1000000                       # Cumulative time (in ticks) in various power states
system.ruby.network.ext_links8.credit_links1.power_state.pwrStateResidencyTicks::UNDEFINED      1000000                       # Cumulative time (in ticks) in various power states
system.ruby.network.ext_links8.network_links1.power_state.pwrStateResidencyTicks::UNDEFINED      1000000                       # Cumulative time (in ticks) in various power states
system.ruby.network.ext_links8.network_links0.power_state.pwrStateResidencyTicks::UNDEFINED      1000000                       # Cumulative time (in ticks) in various power states
system.ruby.network.ext_links7.credit_links0.power_state.pwrStateResidencyTicks::UNDEFINED      1000000                       # Cumulative time (in ticks) in various power states
system.ruby.network.ext_links7.credit_links1.power_state.pwrStateResidencyTicks::UNDEFINED      1000000                       # Cumulative time (in ticks) in various power states
system.ruby.network.ext_links7.network_links1.power_state.pwrStateResidencyTicks::UNDEFINED      1000000                       # Cumulative time (in ticks) in various power states
system.ruby.network.ext_links7.network_links0.power_state.pwrStateResidencyTicks::UNDEFINED      1000000                       # Cumulative time (in ticks) in various power states
system.ruby.network.ext_links6.credit_links0.power_state.pwrStateResidencyTicks::UNDEFINED      1000000                       # Cumulative time (in ticks) in various power states
system.ruby.network.ext_links6.credit_links1.power_state.pwrStateResidencyTicks::UNDEFINED      1000000                       # Cumulative time (in ticks) in various power states
system.ruby.network.ext_links6.network_links1.power_state.pwrStateResidencyTicks::UNDEFINED      1000000                       # Cumulative time (in ticks) in various power states
system.ruby.network.ext_links6.network_links0.power_state.pwrStateResidencyTicks::UNDEFINED      1000000                       # Cumulative time (in ticks) in various power states
system.ruby.network.ext_links5.credit_links0.power_state.pwrStateResidencyTicks::UNDEFINED      1000000                       # Cumulative time (in ticks) in various power states
system.ruby.network.ext_links5.credit_links1.power_state.pwrStateResidencyTicks::UNDEFINED      1000000                       # Cumulative time (in ticks) in various power states
system.ruby.network.ext_links5.network_links1.power_state.pwrStateResidencyTicks::UNDEFINED      1000000                       # Cumulative time (in ticks) in various power states
system.ruby.network.ext_links5.network_links0.power_state.pwrStateResidencyTicks::UNDEFINED      1000000                       # Cumulative time (in ticks) in various power states
system.ruby.network.ext_links4.credit_links0.power_state.pwrStateResidencyTicks::UNDEFINED      1000000                       # Cumulative time (in ticks) in various power states
system.ruby.network.ext_links4.credit_links1.power_state.pwrStateResidencyTicks::UNDEFINED      1000000                       # Cumulative time (in ticks) in various power states
system.ruby.network.ext_links4.network_links1.power_state.pwrStateResidencyTicks::UNDEFINED      1000000                       # Cumulative time (in ticks) in various power states
system.ruby.network.ext_links4.network_links0.power_state.pwrStateResidencyTicks::UNDEFINED      1000000                       # Cumulative time (in ticks) in various power states
system.ruby.network.ext_links3.credit_links0.power_state.pwrStateResidencyTicks::UNDEFINED      1000000                       # Cumulative time (in ticks) in various power states
system.ruby.network.ext_links3.credit_links1.power_state.pwrStateResidencyTicks::UNDEFINED      1000000                       # Cumulative time (in ticks) in various power states
system.ruby.network.ext_links3.network_links1.power_state.pwrStateResidencyTicks::UNDEFINED      1000000                       # Cumulative time (in ticks) in various power states
system.ruby.network.ext_links3.network_links0.power_state.pwrStateResidencyTicks::UNDEFINED      1000000                       # Cumulative time (in ticks) in various power states
system.ruby.network.ext_links2.credit_links0.power_state.pwrStateResidencyTicks::UNDEFINED      1000000                       # Cumulative time (in ticks) in various power states
system.ruby.network.ext_links2.credit_links1.power_state.pwrStateResidencyTicks::UNDEFINED      1000000                       # Cumulative time (in ticks) in various power states
system.ruby.network.ext_links2.network_links1.power_state.pwrStateResidencyTicks::UNDEFINED      1000000                       # Cumulative time (in ticks) in various power states
system.ruby.network.ext_links2.network_links0.power_state.pwrStateResidencyTicks::UNDEFINED      1000000                       # Cumulative time (in ticks) in various power states
system.ruby.network.ext_links1.credit_links0.power_state.pwrStateResidencyTicks::UNDEFINED      1000000                       # Cumulative time (in ticks) in various power states
system.ruby.network.ext_links1.credit_links1.power_state.pwrStateResidencyTicks::UNDEFINED      1000000                       # Cumulative time (in ticks) in various power states
system.ruby.network.ext_links1.network_links1.power_state.pwrStateResidencyTicks::UNDEFINED      1000000                       # Cumulative time (in ticks) in various power states
system.ruby.network.ext_links1.network_links0.power_state.pwrStateResidencyTicks::UNDEFINED      1000000                       # Cumulative time (in ticks) in various power states
system.ruby.network.ext_links0.credit_links0.power_state.pwrStateResidencyTicks::UNDEFINED      1000000                       # Cumulative time (in ticks) in various power states
system.ruby.network.ext_links0.credit_links1.power_state.pwrStateResidencyTicks::UNDEFINED      1000000                       # Cumulative time (in ticks) in various power states
system.ruby.network.ext_links0.network_links1.power_state.pwrStateResidencyTicks::UNDEFINED      1000000                       # Cumulative time (in ticks) in various power states
system.ruby.network.ext_links0.network_links0.power_state.pwrStateResidencyTicks::UNDEFINED      1000000                       # Cumulative time (in ticks) in various power states
system.ruby.network.ext_links31.credit_links0.power_state.pwrStateResidencyTicks::UNDEFINED      1000000                       # Cumulative time (in ticks) in various power states
system.ruby.network.ext_links31.credit_links1.power_state.pwrStateResidencyTicks::UNDEFINED      1000000                       # Cumulative time (in ticks) in various power states
[...]
system.mem_ctrls5.readPktSize::2                    0                       # Read request sizes (log2)
system.mem_ctrls5.readPktSize::3                    0                       # Read request sizes (log2)
system.mem_ctrls5.readPktSize::4                    0                       # Read request sizes (log2)
system.mem_ctrls5.readPktSize::5                    0                       # Read request sizes (log2)
system.mem_ctrls5.readPktSize::6                    0                       # Read request sizes (log2)
system.mem_ctrls5.writePktSize::0                   0                       # Write request sizes (log2)
system.mem_ctrls5.writePktSize::1                   0                       # Write request sizes (log2)
system.mem_ctrls5.writePktSize::2                   0                       # Write request sizes (log2)
system.mem_ctrls5.writePktSize::3                   0                       # Write request sizes (log2)
system.mem_ctrls5.writePktSize::4                   0                       # Write request sizes (log2)
system.mem_ctrls5.writePktSize::5                   0                       # Write request sizes (log2)
system.mem_ctrls5.writePktSize::6                   0                       # Write request sizes (log2)
system.mem_ctrls5.rdQLenPdf::0                      0                       # What read queue length does an incoming req see
system.mem_ctrls5.rdQLenPdf::1                      0                       # What read queue length does an incoming req see
system.mem_ctrls5.rdQLenPdf::2                      0                       # What read queue length does an incoming req see
system.mem_ctrls5.rdQLenPdf::3                      0                       # What read queue length does an incoming req see
system.mem_ctrls5.rdQLenPdf::4                      0                       # What read queue length does an incoming req see
system.mem_ctrls5.rdQLenPdf::5                      0                       # What read queue length does an incoming req see
system.mem_ctrls5.rdQLenPdf::6                      0                       # What read queue length does an incoming req see
system.mem_ctrls5.rdQLenPdf::7                      0                       # What read queue length does an incoming req see
system.mem_ctrls5.rdQLenPdf::8                      0                       # What read queue length does an incoming req see
system.mem_ctrls5.rdQLenPdf::9                      0                       # What read queue length does an incoming req see
system.mem_ctrls5.rdQLenPdf::10                     0                       # What read queue length does an incoming req see
system.mem_ctrls5.rdQLenPdf::11                     0                       # What read queue length does an incoming req see
system.mem_ctrls5.rdQLenPdf::12                     0                       # What read queue length does an incoming req see
system.mem_ctrls5.rdQLenPdf::13                     0                       # What read queue length does an incoming req see
system.mem_ctrls5.rdQLenPdf::14                     0                       # What read queue length does an incoming req see
system.mem_ctrls5.rdQLenPdf::15                     0                       # What read queue length does an incoming req see
system.mem_ctrls5.rdQLenPdf::16                     0                       # What read queue length does an incoming req see
system.mem_ctrls5.rdQLenPdf::17                     0                       # What read queue length does an incoming req see
system.mem_ctrls5.rdQLenPdf::18                     0                       # What read queue length does an incoming req see
system.mem_ctrls5.rdQLenPdf::19                     0                       # What read queue length does an incoming req see
system.mem_ctrls5.rdQLenPdf::20                     0                       # What read queue length does an incoming req see
system.mem_ctrls5.rdQLenPdf::21                     0                       # What read queue length does an incoming req see
system.mem_ctrls5.rdQLenPdf::22                     0                       # What read queue length does an incoming req see
system.mem_ctrls5.rdQLenPdf::23                     0                       # What read queue length does an incoming req see
system.mem_ctrls5.rdQLenPdf::24                     0                       # What read queue length does an incoming req see
system.mem_ctrls5.rdQLenPdf::25                     0                       # What read queue length does an incoming req see
system.mem_ctrls5.rdQLenPdf::26                     0                       # What read queue length does an incoming req see
system.mem_ctrls5.rdQLenPdf::27                     0                       # What read queue length does an incoming req see
system.mem_ctrls5.rdQLenPdf::28                     0                       # What read queue length does an incoming req see
system.mem_ctrls5.rdQLenPdf::29                     0                       # What read queue length does an incoming req see
system.mem_ctrls5.rdQLenPdf::30                     0                       # What read queue length does an incoming req see
system.mem_ctrls5.rdQLenPdf::31                     0                       # What read queue length does an incoming req see
system.mem_ctrls5.wrQLenPdf::0                      0                       # What write queue length does an incoming req see
system.mem_ctrls5.wrQLenPdf::1                      0                       # What write queue length does an incoming req see
system.mem_ctrls5.wrQLenPdf::2                      0                       # What write queue length does an incoming req see
system.mem_ctrls5.wrQLenPdf::3                      0                       # What write queue length does an incoming req see
system.mem_ctrls5.wrQLenPdf::4                      0                       # What write queue length does an incoming req see
system.mem_ctrls5.wrQLenPdf::5                      0                       # What write queue length does an incoming req see
system.mem_ctrls5.wrQLenPdf::6                      0                       # What write queue length does an incoming req see
system.mem_ctrls5.wrQLenPdf::7                      0                       # What write queue length does an incoming req see
system.mem_ctrls5.wrQLenPdf::8                      0                       # What write queue length does an incoming req see
system.mem_ctrls5.wrQLenPdf::9                      0                       # What write queue length does an incoming req see
system.mem_ctrls5.wrQLenPdf::10                     0                       # What write queue length does an incoming req see
system.mem_ctrls5.wrQLenPdf::11                     0                       # What write queue length does an incoming req see
system.mem_ctrls5.wrQLenPdf::12                     0                       # What write queue length does an incoming req see
system.mem_ctrls5.wrQLenPdf::13                     0                       # What write queue length does an incoming req see
system.mem_ctrls5.wrQLenPdf::14                     0                       # What write queue length does an incoming req see
system.mem_ctrls5.wrQLenPdf::15                     0                       # What write queue length does an incoming req see
system.mem_ctrls5.wrQLenPdf::16                     0                       # What write queue length does an incoming req see
system.mem_ctrls5.wrQLenPdf::17                     0                       # What write queue length does an incoming req see
system.mem_ctrls5.wrQLenPdf::18                     0                       # What write queue length does an incoming req see
system.mem_ctrls5.wrQLenPdf::19                     0                       # What write queue length does an incoming req see
system.mem_ctrls5.wrQLenPdf::20                     0                       # What write queue length does an incoming req see
system.mem_ctrls5.wrQLenPdf::21                     0                       # What write queue length does an incoming req see
system.mem_ctrls5.wrQLenPdf::22                     0                       # What write queue length does an incoming req see
system.mem_ctrls5.wrQLenPdf::23                     0                       # What write queue length does an incoming req see
system.mem_ctrls5.wrQLenPdf::24                     0                       # What write queue length does an incoming req see
system.mem_ctrls5.wrQLenPdf::25                     0                       # What write queue length does an incoming req see
system.mem_ctrls5.wrQLenPdf::26                     0                       # What write queue length does an incoming req see
system.mem_ctrls5.wrQLenPdf::27                     0                       # What write queue length does an incoming req see
system.mem_ctrls5.wrQLenPdf::28                     0                       # What write queue length does an incoming req see
system.mem_ctrls5.wrQLenPdf::29                     0                       # What write queue length does an incoming req see
system.mem_ctrls5.wrQLenPdf::30                     0                       # What write queue length does an incoming req see
system.mem_ctrls5.wrQLenPdf::31                     0                       # What write queue length does an incoming req see
system.mem_ctrls5.wrQLenPdf::32                     0                       # What write queue length does an incoming req see
system.mem_ctrls5.wrQLenPdf::33                     0                       # What write queue length does an incoming req see
system.mem_ctrls5.wrQLenPdf::34                     0                       # What write queue length does an incoming req see
system.mem_ctrls5.wrQLenPdf::35                     0                       # What write queue length does an incoming req see
system.mem_ctrls5.wrQLenPdf::36                     0                       # What write queue length does an incoming req see
system.mem_ctrls5.wrQLenPdf::37                     0                       # What write queue length does an incoming req see
system.mem_ctrls5.wrQLenPdf::38                     0                       # What write queue length does an incoming req see
system.mem_ctrls5.wrQLenPdf::39                     0                       # What write queue length does an incoming req see
system.mem_ctrls5.wrQLenPdf::40                     0                       # What write queue length does an incoming req see
system.mem_ctrls5.wrQLenPdf::41                     0                       # What write queue length does an incoming req see
system.mem_ctrls5.wrQLenPdf::42                     0                       # What write queue length does an incoming req see
system.mem_ctrls5.wrQLenPdf::43                     0                       # What write queue length does an incoming req see
system.mem_ctrls5.wrQLenPdf::44                     0                       # What write queue length does an incoming req see
system.mem_ctrls5.wrQLenPdf::45                     0                       # What write queue length does an incoming req see
system.mem_ctrls5.wrQLenPdf::46                     0                       # What write queue length does an incoming req see
system.mem_ctrls5.wrQLenPdf::47                     0                       # What write queue length does an incoming req see
system.mem_ctrls5.wrQLenPdf::48                     0                       # What write queue length does an incoming req see
system.mem_ctrls5.wrQLenPdf::49                     0                       # What write queue length does an incoming req see
system.mem_ctrls5.wrQLenPdf::50                     0                       # What write queue length does an incoming req see
system.mem_ctrls5.wrQLenPdf::51                     0                       # What write queue length does an incoming req see
system.mem_ctrls5.wrQLenPdf::52                     0                       # What write queue length does an incoming req see
system.mem_ctrls5.wrQLenPdf::53                     0                       # What write queue length does an incoming req see
system.mem_ctrls5.wrQLenPdf::54                     0                       # What write queue length does an incoming req see
system.mem_ctrls5.wrQLenPdf::55                     0                       # What write queue length does an incoming req see
system.mem_ctrls5.wrQLenPdf::56                     0                       # What write queue length does an incoming req see
system.mem_ctrls5.wrQLenPdf::57                     0                       # What write queue length does an incoming req see
system.mem_ctrls5.wrQLenPdf::58                     0                       # What write queue length does an incoming req see
system.mem_ctrls5.wrQLenPdf::59                     0                       # What write queue length does an incoming req see
system.mem_ctrls5.wrQLenPdf::60                     0                       # What write queue length does an incoming req see
system.mem_ctrls5.wrQLenPdf::61                     0                       # What write queue length does an incoming req see
system.mem_ctrls5.wrQLenPdf::62                     0                       # What write queue length does an incoming req see
system.mem_ctrls5.wrQLenPdf::63                     0                       # What write queue length does an incoming req see
system.mem_ctrls5.bytesReadDRAM                     0                       # Total number of bytes read from DRAM
system.mem_ctrls5.bytesReadWrQ                      0                       # Total number of bytes read from write queue
system.mem_ctrls5.bytesWritten                      0                       # Total number of bytes written to DRAM
system.mem_ctrls5.bytesReadSys                      0                       # Total read bytes from the system interface side
system.mem_ctrls5.bytesWrittenSys                   0                       # Total written bytes from the system interface side
system.mem_ctrls5.avgRdBW                        0.00                       # Average DRAM read bandwidth in MiByte/s
system.mem_ctrls5.avgWrBW                        0.00                       # Average achieved write bandwidth in MiByte/s
system.mem_ctrls5.avgRdBWSys                     0.00                       # Average system read bandwidth in MiByte/s
system.mem_ctrls5.avgWrBWSys                     0.00                       # Average system write bandwidth in MiByte/s
system.mem_ctrls5.peakBW                     12800.00                       # Theoretical peak bandwidth in MiByte/s
system.mem_ctrls5.busUtil                        0.00                       # Data bus utilization in percentage
system.mem_ctrls5.busUtilRead                    0.00                       # Data bus utilization in percentage for reads
system.mem_ctrls5.busUtilWrite                   0.00                       # Data bus utilization in percentage for writes
system.mem_ctrls5.totGap                            0                       # Total gap between requests
system.mem_ctrls5.avgGap                          nan                       # Average gap between requests
system.mem_ctrls5.pageHitRate                     nan                       # Row buffer hit rate, read and write combined
system.mem_ctrls5.rank1.actEnergy                   0                       # Energy for activate commands per rank (pJ)
system.mem_ctrls5.rank1.preEnergy                   0                       # Energy for precharge commands per rank (pJ)
system.mem_ctrls5.rank1.readEnergy                  0                       # Energy for read commands per rank (pJ)
system.mem_ctrls5.rank1.writeEnergy                 0                       # Energy for write commands per rank (pJ)
system.mem_ctrls5.rank1.refreshEnergy    78673920.000000                       # Energy for refresh commands per rank (pJ)
system.mem_ctrls5.rank1.actBackEnergy        14358528                       # Energy for active background per rank (pJ)
system.mem_ctrls5.rank1.preBackEnergy       371908608                       # Energy for precharge background per rank (pJ)
system.mem_ctrls5.rank1.actPowerDownEnergy            0                       # Energy for active power-down per rank (pJ)
system.mem_ctrls5.rank1.prePowerDownEnergy            0                       # Energy for precharge power-down per rank (pJ)
system.mem_ctrls5.rank1.selfRefreshEnergy            0                       # Energy for self refresh per rank (pJ)
system.mem_ctrls5.rank1.totalEnergy         464941056                       # Total energy per rank (pJ)
system.mem_ctrls5.rank1.averagePower       464.941056                       # Core power per rank (mW)
system.mem_ctrls5.rank1.totalIdleTime               0                       # Total Idle time Per DRAM Rank
system.mem_ctrls5.rank1.memoryStateTime::IDLE       966720                       # Time in different power states
system.mem_ctrls5.rank1.memoryStateTime::REF        33280                       # Time in different power states
system.mem_ctrls5.rank1.memoryStateTime::SREF            0                       # Time in different power states
system.mem_ctrls5.rank1.memoryStateTime::PRE_PDN            0                       # Time in different power states
system.mem_ctrls5.rank1.memoryStateTime::ACT            0                       # Time in different power states
system.mem_ctrls5.rank1.memoryStateTime::ACT_PDN            0                       # Time in different power states
system.mem_ctrls5.rank0.actEnergy                   0                       # Energy for activate commands per rank (pJ)
system.mem_ctrls5.rank0.preEnergy                   0                       # Energy for precharge commands per rank (pJ)
system.mem_ctrls5.rank0.readEnergy                  0                       # Energy for read commands per rank (pJ)
system.mem_ctrls5.rank0.writeEnergy                 0                       # Energy for write commands per rank (pJ)
system.mem_ctrls5.rank0.refreshEnergy    78673920.000000                       # Energy for refresh commands per rank (pJ)
system.mem_ctrls5.rank0.actBackEnergy        14358528                       # Energy for active background per rank (pJ)
system.mem_ctrls5.rank0.preBackEnergy       371908608                       # Energy for precharge background per rank (pJ)
system.mem_ctrls5.rank0.actPowerDownEnergy            0                       # Energy for active power-down per rank (pJ)
system.mem_ctrls5.rank0.prePowerDownEnergy            0                       # Energy for precharge power-down per rank (pJ)
system.mem_ctrls5.rank0.selfRefreshEnergy            0                       # Energy for self refresh per rank (pJ)
system.mem_ctrls5.rank0.totalEnergy         464941056                       # Total energy per rank (pJ)
system.mem_ctrls5.rank0.averagePower       464.941056                       # Core power per rank (mW)
system.mem_ctrls5.rank0.totalIdleTime               0                       # Total Idle time Per DRAM Rank
system.mem_ctrls5.rank0.memoryStateTime::IDLE       966720                       # Time in different power states
system.mem_ctrls5.rank0.memoryStateTime::REF        33280                       # Time in different power states
system.mem_ctrls5.rank0.memoryStateTime::SREF            0                       # Time in different power states
system.mem_ctrls5.rank0.memoryStateTime::PRE_PDN            0                       # Time in different power states
system.mem_ctrls5.rank0.memoryStateTime::ACT            0                       # Time in different power states
system.mem_ctrls5.rank0.memoryStateTime::ACT_PDN            0                       # Time in different power states
system.mem_ctrls5.power_state.pwrStateResidencyTicks::UNDEFINED      1000000                       # Cumulative time (in ticks) in various power states

---------- End Simulation Statistics   ----------
