
---------- Begin Simulation Statistics ----------
final_tick                               100718760440001                       # Number of ticks from beginning of simulation (restored from checkpoints and never reset)
host_inst_rate                                 767137                       # Simulator instruction rate (inst/s)
host_mem_usage                                1559540                       # Number of bytes of host memory used
host_op_rate                                   902063                       # Simulator op (including micro ops) rate (op/s)
host_seconds                                  8171.03                       # Real time elapsed on the host
host_tick_rate                              119526140                       # Simulator tick rate (ticks/s)
sim_freq                                 1000000000000                       # Frequency of simulated ticks
sim_insts                                  6268293341                       # Number of instructions simulated
sim_ops                                    7370782368                       # Number of ops (including micro ops) simulated
sim_seconds                                  0.976651                       # Number of seconds simulated
sim_ticks                                976651124001                       # Number of ticks simulated
system.cpu0.committedInsts                          0                       # Number of instructions committed
system.cpu0.dtb.rdAccesses                          0                       # TLB accesses on read requests
system.cpu0.dtb.rdMisses                            0                       # TLB misses on read requests
system.cpu0.dtb.wrAccesses                          0                       # TLB accesses on write requests
system.cpu0.dtb.wrMisses                            0                       # TLB misses on write requests
system.cpu0.itb.rdAccesses                          0                       # TLB accesses on read requests
system.cpu0.itb.rdMisses                            0                       # TLB misses on read requests
system.cpu0.itb.wrAccesses                          0                       # TLB accesses on write requests
system.cpu0.itb.wrMisses                            0                       # TLB misses on write requests
system.cpu0.kern.inst.arm                           0                       # number of arm instructions executed
system.cpu0.kern.inst.quiesce                       0                       # number of quiesce instructions executed
system.cpu0.numCoalescedMMIO                        0                       # number of coalesced memory mapped IO requests
system.cpu0.numCycles                               0                       # number of cpu cycles simulated
system.cpu0.numExitSignal                           0                       # exits due to signal delivery
system.cpu0.numHalt                                 0                       # number of VM exits due to wait for interrupt instructions
system.cpu0.numHypercalls                           0                       # number of hypercalls
system.cpu0.numIO                                   0                       # number of VM exits due to legacy IO
system.cpu0.numInterrupts                           0                       # number of interrupts delivered
system.cpu0.numMMIO                                 0                       # number of VM exits due to memory mapped IO
system.cpu0.numVMExits                              0                       # total number of KVM exits
system.cpu0.numVMHalfEntries                        0                       # number of KVM entries to finalize pending operations
system.cpu0.numWorkItemsCompleted                   0                       # number of work items this cpu completed
system.cpu0.numWorkItemsStarted                     0                       # number of work items this cpu started
system.cpu1.committedInsts                          0                       # Number of instructions committed
system.cpu1.dtb.rdAccesses                          0                       # TLB accesses on read requests
system.cpu1.dtb.rdMisses                            0                       # TLB misses on read requests
system.cpu1.dtb.wrAccesses                          0                       # TLB accesses on write requests
system.cpu1.dtb.wrMisses                            0                       # TLB misses on write requests
system.cpu1.itb.rdAccesses                          0                       # TLB accesses on read requests
system.cpu1.itb.rdMisses                            0                       # TLB misses on read requests
system.cpu1.itb.wrAccesses                          0                       # TLB accesses on write requests
system.cpu1.itb.wrMisses                            0                       # TLB misses on write requests
system.cpu1.kern.inst.arm                           0                       # number of arm instructions executed
system.cpu1.kern.inst.quiesce                       0                       # number of quiesce instructions executed
system.cpu1.numCoalescedMMIO                        0                       # number of coalesced memory mapped IO requests
system.cpu1.numCycles                               0                       # number of cpu cycles simulated
system.cpu1.numExitSignal                           0                       # exits due to signal delivery
system.cpu1.numHalt                                 0                       # number of VM exits due to wait for interrupt instructions
system.cpu1.numHypercalls                           0                       # number of hypercalls
system.cpu1.numIO                                   0                       # number of VM exits due to legacy IO
system.cpu1.numInterrupts                           0                       # number of interrupts delivered
system.cpu1.numMMIO                                 0                       # number of VM exits due to memory mapped IO
system.cpu1.numVMExits                              0                       # total number of KVM exits
system.cpu1.numVMHalfEntries                        0                       # number of KVM entries to finalize pending operations
system.cpu1.numWorkItemsCompleted                   0                       # number of work items this cpu completed
system.cpu1.numWorkItemsStarted                     0                       # number of work items this cpu started
system.cpu2.committedInsts                          0                       # Number of instructions committed
system.cpu2.dtb.rdAccesses                          0                       # TLB accesses on read requests
system.cpu2.dtb.rdMisses                            0                       # TLB misses on read requests
system.cpu2.dtb.wrAccesses                          0                       # TLB accesses on write requests
system.cpu2.dtb.wrMisses                            0                       # TLB misses on write requests
system.cpu2.itb.rdAccesses                          0                       # TLB accesses on read requests
system.cpu2.itb.rdMisses                            0                       # TLB misses on read requests
system.cpu2.itb.wrAccesses                          0                       # TLB accesses on write requests
system.cpu2.itb.wrMisses                            0                       # TLB misses on write requests
system.cpu2.kern.inst.arm                           0                       # number of arm instructions executed
system.cpu2.kern.inst.quiesce                       0                       # number of quiesce instructions executed
system.cpu2.numCoalescedMMIO                        0                       # number of coalesced memory mapped IO requests
system.cpu2.numCycles                               0                       # number of cpu cycles simulated
system.cpu2.numExitSignal                           0                       # exits due to signal delivery
system.cpu2.numHalt                                 0                       # number of VM exits due to wait for interrupt instructions
system.cpu2.numHypercalls                           0                       # number of hypercalls
system.cpu2.numIO                                   0                       # number of VM exits due to legacy IO
system.cpu2.numInterrupts                           0                       # number of interrupts delivered
system.cpu2.numMMIO                                 0                       # number of VM exits due to memory mapped IO
system.cpu2.numVMExits                              0                       # total number of KVM exits
system.cpu2.numVMHalfEntries                        0                       # number of KVM entries to finalize pending operations
system.cpu2.numWorkItemsCompleted                   0                       # number of work items this cpu completed
system.cpu2.numWorkItemsStarted                     0                       # number of work items this cpu started
system.cpu3.committedInsts                          0                       # Number of instructions committed
system.cpu3.dtb.rdAccesses                          0                       # TLB accesses on read requests
system.cpu3.dtb.rdMisses                            0                       # TLB misses on read requests
system.cpu3.dtb.wrAccesses                          0                       # TLB accesses on write requests
system.cpu3.dtb.wrMisses                            0                       # TLB misses on write requests
system.cpu3.itb.rdAccesses                          0                       # TLB accesses on read requests
system.cpu3.itb.rdMisses                            0                       # TLB misses on read requests
system.cpu3.itb.wrAccesses                          0                       # TLB accesses on write requests
system.cpu3.itb.wrMisses                            0                       # TLB misses on write requests
system.cpu3.kern.inst.arm                           0                       # number of arm instructions executed
system.cpu3.kern.inst.quiesce                       0                       # number of quiesce instructions executed
system.cpu3.numCoalescedMMIO                        0                       # number of coalesced memory mapped IO requests
system.cpu3.numCycles                               0                       # number of cpu cycles simulated
system.cpu3.numExitSignal                           0                       # exits due to signal delivery
system.cpu3.numHalt                                 0                       # number of VM exits due to wait for interrupt instructions
system.cpu3.numHypercalls                           0                       # number of hypercalls
system.cpu3.numIO                                   0                       # number of VM exits due to legacy IO
system.cpu3.numInterrupts                           0                       # number of interrupts delivered
system.cpu3.numMMIO                                 0                       # number of VM exits due to memory mapped IO
system.cpu3.numVMExits                              0                       # total number of KVM exits
system.cpu3.numVMHalfEntries                        0                       # number of KVM entries to finalize pending operations
system.cpu3.numWorkItemsCompleted                   0                       # number of work items this cpu completed
system.cpu3.numWorkItemsStarted                     0                       # number of work items this cpu started
system.pc.south_bridge.ide.disks.dma_read_bytes            0                       # Number of bytes transfered via DMA reads (not PRD).
system.pc.south_bridge.ide.disks.dma_read_full_pages            0                       # Number of full page size DMA reads (not PRD).
system.pc.south_bridge.ide.disks.dma_read_txs            0                       # Number of DMA read transactions (not PRD).
system.pc.south_bridge.ide.disks.dma_write_bytes            0                       # Number of bytes transfered via DMA writes.
system.pc.south_bridge.ide.disks.dma_write_full_pages            0                       # Number of full page size DMA writes.
system.pc.south_bridge.ide.disks.dma_write_txs            0                       # Number of DMA write transactions.
system.ruby.Directory_Controller.I.allocTBE |     3973012     21.21%     21.21% |     5475368     29.24%     50.45% |     3854486     20.58%     71.03% |     5425478     28.97%    100.00%
system.ruby.Directory_Controller.I.allocTBE::total     18728344                      
system.ruby.Directory_Controller.I.deallocTBE |     3972363     21.21%     21.21% |     5474758     29.24%     50.45% |     3853862     20.58%     71.03% |     5424807     28.97%    100.00%
system.ruby.Directory_Controller.I.deallocTBE::total     18725790                      
system.ruby.Directory_Controller.I_GetML1C1_0.Stallreqto_in |          19     65.52%     65.52% |           0      0.00%     65.52% |           8     27.59%     93.10% |           2      6.90%    100.00%
system.ruby.Directory_Controller.I_GetML1C1_0.Stallreqto_in::total           29                      
system.ruby.Directory_Controller.I_GetSL1C1_0.Stallreqto_in |        3442     34.39%     34.39% |        1809     18.07%     52.46% |        2471     24.69%     77.15% |        2287     22.85%    100.00%
system.ruby.Directory_Controller.I_GetSL1C1_0.Stallreqto_in::total        10009                      
system.ruby.Directory_Controller.M.allocTBE |      282289     13.26%     13.26% |     1100140     51.67%     64.93% |      203315      9.55%     74.48% |      543399     25.52%    100.00%
system.ruby.Directory_Controller.M.allocTBE::total      2129143                      
system.ruby.Directory_Controller.M.deallocTBE |      282414     13.26%     13.26% |     1100268     51.66%     64.92% |      203453      9.55%     74.48% |      543537     25.52%    100.00%
system.ruby.Directory_Controller.M.deallocTBE::total      2129672                      
system.ruby.Directory_Controller.M_GetS.Progress |      101785      9.18%      9.18% |      897792     81.01%     90.19% |       47766      4.31%     94.50% |       60900      5.50%    100.00%
system.ruby.Directory_Controller.M_GetS.Progress::total      1108243                      
system.ruby.Directory_Controller.M_GetS.Stallreqto_in |       85863      6.59%      6.59% |     1132308     86.86%     93.45% |       40265      3.09%     96.54% |       45106      3.46%    100.00%
system.ruby.Directory_Controller.M_GetS.Stallreqto_in::total      1303542                      
system.ruby.Directory_Controller.M_GetS_WBL1C1_0.Stallreqto_in |      199680      7.53%      7.53% |     2264781     85.42%     92.95% |       98363      3.71%     96.66% |       88668      3.34%    100.00%
system.ruby.Directory_Controller.M_GetS_WBL1C1_0.Stallreqto_in::total      2651492                      
system.ruby.Directory_Controller.M_PutML1C1_0.Stallreqto_in |           1    100.00%    100.00% |           0      0.00%    100.00% |           0      0.00%    100.00% |           0      0.00%    100.00%
system.ruby.Directory_Controller.M_PutML1C1_0.Stallreqto_in::total            1                      
system.ruby.Directory_Controller.Progress |      101785      9.18%      9.18% |      897792     81.01%     90.19% |       47766      4.31%     94.50% |       60900      5.50%    100.00%
system.ruby.Directory_Controller.Progress::total      1108243                      
system.ruby.Directory_Controller.S.allocTBE |     5039977     19.37%     19.37% |     8669749     33.33%     52.70% |     4573785     17.58%     70.28% |     7730986     29.72%    100.00%
system.ruby.Directory_Controller.S.allocTBE::total     26014497                      
system.ruby.Directory_Controller.S.deallocTBE |     5040501     19.37%     19.37% |     8670231     33.33%     52.70% |     4574271     17.58%     70.28% |     7731519     29.72%    100.00%
system.ruby.Directory_Controller.S.deallocTBE::total     26016522                      
system.ruby.Directory_Controller.S_GetML1C1_0.Stallreqto_in |       13933      6.49%      6.49% |      190524     88.73%     95.22% |        4397      2.05%     97.27% |        5869      2.73%    100.00%
system.ruby.Directory_Controller.S_GetML1C1_0.Stallreqto_in::total       214723                      
system.ruby.Directory_Controller.S_GetML1C1_1.Stallreqto_in |           0      0.00%      0.00% |           2     22.22%     22.22% |           5     55.56%     77.78% |           2     22.22%    100.00%
system.ruby.Directory_Controller.S_GetML1C1_1.Stallreqto_in::total            9                      
system.ruby.Directory_Controller.S_GetML1C1_2.Stallreqto_in |        1180     66.18%     66.18% |          18      1.01%     67.19% |           8      0.45%     67.64% |         577     32.36%    100.00%
system.ruby.Directory_Controller.S_GetML1C1_2.Stallreqto_in::total         1783                      
system.ruby.Directory_Controller.S_GetSL1C1_0.Stallreqto_in |        8835      6.21%      6.21% |      126088     88.56%     94.76% |        3195      2.24%     97.01% |        4260      2.99%    100.00%
system.ruby.Directory_Controller.S_GetSL1C1_0.Stallreqto_in::total       142378                      
system.ruby.Directory_Controller.Stallreqto_in |      312953      7.24%      7.24% |     3715530     85.93%     93.17% |      148712      3.44%     96.61% |      146771      3.39%    100.00%
system.ruby.Directory_Controller.Stallreqto_in::total      4323966                      
system.ruby.Directory_Controller.allocTBE |     9295278     19.83%     19.83% |    15245257     32.53%     52.36% |     8631586     18.42%     70.77% |    13699863     29.23%    100.00%
system.ruby.Directory_Controller.allocTBE::total     46871984                      
system.ruby.Directory_Controller.deallocTBE |     9295278     19.83%     19.83% |    15245257     32.53%     52.36% |     8631586     18.42%     70.77% |    13699863     29.23%    100.00%
system.ruby.Directory_Controller.deallocTBE::total     46871984                      
system.ruby.IFETCH.hit_latency_hist_seqr::bucket_size            1                      
system.ruby.IFETCH.hit_latency_hist_seqr::max_bucket            9                      
system.ruby.IFETCH.hit_latency_hist_seqr::samples   1928535179                      
system.ruby.IFETCH.hit_latency_hist_seqr |  1928535179    100.00%    100.00% |           0      0.00%    100.00% |           0      0.00%    100.00% |           0      0.00%    100.00% |           0      0.00%    100.00% |           0      0.00%    100.00% |           0      0.00%    100.00% |           0      0.00%    100.00% |           0      0.00%    100.00% |           0      0.00%    100.00%
system.ruby.IFETCH.hit_latency_hist_seqr::total   1928535179                      
system.ruby.IFETCH.latency_hist_seqr::bucket_size            1                      
system.ruby.IFETCH.latency_hist_seqr::max_bucket            9                      
system.ruby.IFETCH.latency_hist_seqr::samples   1930489279                      
system.ruby.IFETCH.latency_hist_seqr     |  1930489279    100.00%    100.00% |           0      0.00%    100.00% |           0      0.00%    100.00% |           0      0.00%    100.00% |           0      0.00%    100.00% |           0      0.00%    100.00% |           0      0.00%    100.00% |           0      0.00%    100.00% |           0      0.00%    100.00% |           0      0.00%    100.00%
system.ruby.IFETCH.latency_hist_seqr::total   1930489279                      
system.ruby.IFETCH.miss_latency_hist_seqr::bucket_size            1                      
system.ruby.IFETCH.miss_latency_hist_seqr::max_bucket            9                      
system.ruby.IFETCH.miss_latency_hist_seqr::samples      1954100                      
system.ruby.IFETCH.miss_latency_hist_seqr |     1954100    100.00%    100.00% |           0      0.00%    100.00% |           0      0.00%    100.00% |           0      0.00%    100.00% |           0      0.00%    100.00% |           0      0.00%    100.00% |           0      0.00%    100.00% |           0      0.00%    100.00% |           0      0.00%    100.00% |           0      0.00%    100.00%
system.ruby.IFETCH.miss_latency_hist_seqr::total      1954100                      
system.ruby.L1Cache_Controller.I.allocI_load |     5489696     24.12%     24.12% |     5845651     25.68%     49.80% |     5936834     26.08%     75.88% |     5490248     24.12%    100.00%
system.ruby.L1Cache_Controller.I.allocI_load::total     22762429                      
system.ruby.L1Cache_Controller.I.allocI_store |      200081     25.09%     25.09% |      180450     22.63%     47.71% |      235208     29.49%     77.20% |      181824     22.80%    100.00%
system.ruby.L1Cache_Controller.I.allocI_store::total       797563                      
system.ruby.L1Cache_Controller.I.deallocfwdfrom_in |     5688776     24.15%     24.15% |     6025086     25.58%     49.73% |     6171019     26.20%     75.93% |     5671076     24.07%    100.00%
system.ruby.L1Cache_Controller.I.deallocfwdfrom_in::total     23555957                      
system.ruby.L1Cache_Controller.I_store.Progress |        8910     10.18%     10.18% |       40265     46.00%     56.18% |       32105     36.68%     92.86% |        6247      7.14%    100.00%
system.ruby.L1Cache_Controller.I_store.Progress::total        87527                      
system.ruby.L1Cache_Controller.I_store.Stallfwdfrom_in |       35429     22.12%     22.12% |       40403     25.23%     47.35% |       38763     24.21%     71.56% |       45544     28.44%    100.00%
system.ruby.L1Cache_Controller.I_store.Stallfwdfrom_in::total       160139                      
system.ruby.L1Cache_Controller.I_store_GetM_Ack_AD.Progress |          46     25.00%     25.00% |          56     30.43%     55.43% |          57     30.98%     86.41% |          25     13.59%    100.00%
system.ruby.L1Cache_Controller.I_store_GetM_Ack_AD.Progress::total          184                      
system.ruby.L1Cache_Controller.I_store_GetM_Ack_AD.Stallfwdfrom_in |           0      0.00%      0.00% |           3     27.27%     27.27% |           8     72.73%    100.00% |           0      0.00%    100.00%
system.ruby.L1Cache_Controller.I_store_GetM_Ack_AD.Stallfwdfrom_in::total           11                      
system.ruby.L1Cache_Controller.M.MloadMEvent |    21094372     27.26%     27.26% |    16876730     21.81%     49.06% |    16875400     21.80%     70.87% |    22549069     29.13%    100.00%
system.ruby.L1Cache_Controller.M.MloadMEvent::total     77395571                      
system.ruby.L1Cache_Controller.M.MstoreMEvent |    12116184     26.91%     26.91% |     9804338     21.78%     48.69% |    10464657     23.24%     71.94% |    12634550     28.06%    100.00%
system.ruby.L1Cache_Controller.M.MstoreMEvent::total     45019729                      
system.ruby.L1Cache_Controller.M.allocTBE |      303451     14.25%     14.25% |      725289     34.07%     48.32% |      796262     37.40%     85.72% |      304130     14.28%    100.00%
system.ruby.L1Cache_Controller.M.allocTBE::total      2129132                      
system.ruby.L1Cache_Controller.M.externalstoreMrespfrom_in |      303580     14.25%     14.25% |      725430     34.06%     48.32% |      796407     37.40%     85.71% |      304244     14.29%    100.00%
system.ruby.L1Cache_Controller.M.externalstoreMrespfrom_in::total      2129661                      
system.ruby.L1Cache_Controller.M_evict.Stallmandatory_in |        1420      7.47%      7.47% |        5885     30.95%     38.42% |       10320     54.27%     92.69% |        1391      7.31%    100.00%
system.ruby.L1Cache_Controller.M_evict.Stallmandatory_in::total        19016                      
system.ruby.L1Cache_Controller.MloadMEvent |    21094372     27.26%     27.26% |    16876730     21.81%     49.06% |    16875400     21.80%     70.87% |    22549069     29.13%    100.00%
system.ruby.L1Cache_Controller.MloadMEvent::total     77395571                      
system.ruby.L1Cache_Controller.MstoreMEvent |    12116184     26.91%     26.91% |     9804338     21.78%     48.69% |    10464657     23.24%     71.94% |    12634550     28.06%    100.00%
system.ruby.L1Cache_Controller.MstoreMEvent::total     45019729                      
system.ruby.L1Cache_Controller.Progress  |      185483      7.12%      7.12% |     1079810     41.42%     48.54% |     1107883     42.50%     91.04% |      233665      8.96%    100.00%
system.ruby.L1Cache_Controller.Progress::total      2606841                      
system.ruby.L1Cache_Controller.S.SloadSEvent |   600042543     25.43%     25.43% |   577070340     24.45%     49.88% |   575690886     24.40%     74.28% |   606948641     25.72%    100.00%
system.ruby.L1Cache_Controller.S.SloadSEvent::total   2359752410                      
system.ruby.L1Cache_Controller.S.allocTBE |     5552779     23.27%     23.27% |     6334075     26.54%     49.80% |     6420625     26.90%     76.71% |     5559684     23.29%    100.00%
system.ruby.L1Cache_Controller.S.allocTBE::total     23867163                      
system.ruby.L1Cache_Controller.S.deallocTBE |       63955      5.77%      5.77% |      489298     44.15%     49.92% |      484669     43.73%     93.65% |       70318      6.35%    100.00%
system.ruby.L1Cache_Controller.S.deallocTBE::total      1108240                      
system.ruby.L1Cache_Controller.S.externalloadSrespfrom_in |     5489696     24.12%     24.12% |     5845651     25.68%     49.80% |     5936834     26.08%     75.88% |     5490248     24.12%    100.00%
system.ruby.L1Cache_Controller.S.externalloadSrespfrom_in::total     22762429                      
system.ruby.L1Cache_Controller.S_evict.Progress |           0      0.00%      0.00% |           0      0.00%      0.00% |           2     66.67%     66.67% |           1     33.33%    100.00%
system.ruby.L1Cache_Controller.S_evict.Progress::total            3                      
system.ruby.L1Cache_Controller.S_evict.Stallmandatory_in |       18196      8.50%      8.50% |       83904     39.18%     47.68% |       95603     44.64%     92.32% |       16454      7.68%    100.00%
system.ruby.L1Cache_Controller.S_evict.Stallmandatory_in::total       214157                      
system.ruby.L1Cache_Controller.S_evict_x_I.Progress |           1      9.09%      9.09% |           5     45.45%     54.55% |           2     18.18%     72.73% |           3     27.27%    100.00%
system.ruby.L1Cache_Controller.S_evict_x_I.Progress::total           11                      
system.ruby.L1Cache_Controller.S_evict_x_I.Stallmandatory_in |           1     10.00%     10.00% |           5     50.00%     60.00% |           1     10.00%     70.00% |           3     30.00%    100.00%
system.ruby.L1Cache_Controller.S_evict_x_I.Stallmandatory_in::total           10                      
system.ruby.L1Cache_Controller.S_store.Progress |      176136      7.00%      7.00% |     1039135     41.28%     48.27% |     1075394     42.72%     90.99% |      226911      9.01%    100.00%
system.ruby.L1Cache_Controller.S_store.Progress::total      2517576                      
system.ruby.L1Cache_Controller.S_store.Stallfwdfrom_in |        6111      4.38%      4.38% |       50480     36.15%     40.52% |       73748     52.81%     93.33% |        9311      6.67%    100.00%
system.ruby.L1Cache_Controller.S_store.Stallfwdfrom_in::total       139650                      
system.ruby.L1Cache_Controller.S_store_GetM_Ack_AD.Progress |         390     25.32%     25.32% |         349     22.66%     47.99% |         323     20.97%     68.96% |         478     31.04%    100.00%
system.ruby.L1Cache_Controller.S_store_GetM_Ack_AD.Progress::total         1540                      
system.ruby.L1Cache_Controller.S_store_GetM_Ack_AD.Stallfwdfrom_in |          21     40.38%     40.38% |          14     26.92%     67.31% |          10     19.23%     86.54% |           7     13.46%    100.00%
system.ruby.L1Cache_Controller.S_store_GetM_Ack_AD.Stallfwdfrom_in::total           52                      
system.ruby.L1Cache_Controller.SloadSEvent |   600042543     25.43%     25.43% |   577070340     24.45%     49.88% |   575690886     24.40%     74.28% |   606948641     25.72%    100.00%
system.ruby.L1Cache_Controller.SloadSEvent::total   2359752410                      
system.ruby.L1Cache_Controller.Stallfwdfrom_in |       41561     13.86%     13.86% |       90900     30.31%     44.18% |      112529     37.53%     81.70% |       54862     18.30%    100.00%
system.ruby.L1Cache_Controller.Stallfwdfrom_in::total       299852                      
system.ruby.L1Cache_Controller.Stallmandatory_in |       19617      8.41%      8.41% |       89794     38.51%     46.92% |      105924     45.43%     92.35% |       17848      7.65%    100.00%
system.ruby.L1Cache_Controller.Stallmandatory_in::total       233183                      
system.ruby.L1Cache_Controller.allocI_load |     5489696     24.12%     24.12% |     5845651     25.68%     49.80% |     5936834     26.08%     75.88% |     5490248     24.12%    100.00%
system.ruby.L1Cache_Controller.allocI_load::total     22762429                      
system.ruby.L1Cache_Controller.allocI_store |      200081     25.09%     25.09% |      180450     22.63%     47.71% |      235208     29.49%     77.20% |      181824     22.80%    100.00%
system.ruby.L1Cache_Controller.allocI_store::total       797563                      
system.ruby.L1Cache_Controller.allocTBE  |     5856230     22.53%     22.53% |     7059364     27.16%     49.68% |     7216887     27.76%     77.44% |     5863814     22.56%    100.00%
system.ruby.L1Cache_Controller.allocTBE::total     25996295                      
system.ruby.L1Cache_Controller.deallocTBE |       63955      5.77%      5.77% |      489298     44.15%     49.92% |      484669     43.73%     93.65% |       70318      6.35%    100.00%
system.ruby.L1Cache_Controller.deallocTBE::total      1108240                      
system.ruby.L1Cache_Controller.deallocfwdfrom_in |     5688776     24.15%     24.15% |     6025086     25.58%     49.73% |     6171019     26.20%     75.93% |     5671076     24.07%    100.00%
system.ruby.L1Cache_Controller.deallocfwdfrom_in::total     23555957                      
system.ruby.L1Cache_Controller.externalloadSrespfrom_in |     5489696     24.12%     24.12% |     5845651     25.68%     49.80% |     5936834     26.08%     75.88% |     5490248     24.12%    100.00%
system.ruby.L1Cache_Controller.externalloadSrespfrom_in::total     22762429                      
system.ruby.L1Cache_Controller.externalstoreMrespfrom_in |      303580     14.25%     14.25% |      725430     34.06%     48.32% |      796407     37.40%     85.71% |      304244     14.29%    100.00%
system.ruby.L1Cache_Controller.externalstoreMrespfrom_in::total      2129661                      
system.ruby.LD.hit_latency_hist_seqr::bucket_size            1                      
system.ruby.LD.hit_latency_hist_seqr::max_bucket            9                      
system.ruby.LD.hit_latency_hist_seqr::samples    508612802                      
system.ruby.LD.hit_latency_hist_seqr     |   508612802    100.00%    100.00% |           0      0.00%    100.00% |           0      0.00%    100.00% |           0      0.00%    100.00% |           0      0.00%    100.00% |           0      0.00%    100.00% |           0      0.00%    100.00% |           0      0.00%    100.00% |           0      0.00%    100.00% |           0      0.00%    100.00%
system.ruby.LD.hit_latency_hist_seqr::total    508612802                      
system.ruby.LD.latency_hist_seqr::bucket_size            1                      
system.ruby.LD.latency_hist_seqr::max_bucket            9                      
system.ruby.LD.latency_hist_seqr::samples    529421131                      
system.ruby.LD.latency_hist_seqr         |   529421131    100.00%    100.00% |           0      0.00%    100.00% |           0      0.00%    100.00% |           0      0.00%    100.00% |           0      0.00%    100.00% |           0      0.00%    100.00% |           0      0.00%    100.00% |           0      0.00%    100.00% |           0      0.00%    100.00% |           0      0.00%    100.00%
system.ruby.LD.latency_hist_seqr::total     529421131                      
system.ruby.LD.miss_latency_hist_seqr::bucket_size            1                      
system.ruby.LD.miss_latency_hist_seqr::max_bucket            9                      
system.ruby.LD.miss_latency_hist_seqr::samples     20808329                      
system.ruby.LD.miss_latency_hist_seqr    |    20808329    100.00%    100.00% |           0      0.00%    100.00% |           0      0.00%    100.00% |           0      0.00%    100.00% |           0      0.00%    100.00% |           0      0.00%    100.00% |           0      0.00%    100.00% |           0      0.00%    100.00% |           0      0.00%    100.00% |           0      0.00%    100.00%
system.ruby.LD.miss_latency_hist_seqr::total     20808329                      
system.ruby.Locked_RMW_Read.hit_latency_hist_seqr::bucket_size            1                      
system.ruby.Locked_RMW_Read.hit_latency_hist_seqr::max_bucket            9                      
system.ruby.Locked_RMW_Read.hit_latency_hist_seqr::samples       187279                      
system.ruby.Locked_RMW_Read.hit_latency_hist_seqr |      187279    100.00%    100.00% |           0      0.00%    100.00% |           0      0.00%    100.00% |           0      0.00%    100.00% |           0      0.00%    100.00% |           0      0.00%    100.00% |           0      0.00%    100.00% |           0      0.00%    100.00% |           0      0.00%    100.00% |           0      0.00%    100.00%
system.ruby.Locked_RMW_Read.hit_latency_hist_seqr::total       187279                      
system.ruby.Locked_RMW_Read.latency_hist_seqr::bucket_size            1                      
system.ruby.Locked_RMW_Read.latency_hist_seqr::max_bucket            9                      
system.ruby.Locked_RMW_Read.latency_hist_seqr::samples       499785                      
system.ruby.Locked_RMW_Read.latency_hist_seqr |      499785    100.00%    100.00% |           0      0.00%    100.00% |           0      0.00%    100.00% |           0      0.00%    100.00% |           0      0.00%    100.00% |           0      0.00%    100.00% |           0      0.00%    100.00% |           0      0.00%    100.00% |           0      0.00%    100.00% |           0      0.00%    100.00%
system.ruby.Locked_RMW_Read.latency_hist_seqr::total       499785                      
system.ruby.Locked_RMW_Read.miss_latency_hist_seqr::bucket_size            1                      
system.ruby.Locked_RMW_Read.miss_latency_hist_seqr::max_bucket            9                      
system.ruby.Locked_RMW_Read.miss_latency_hist_seqr::samples       312506                      
system.ruby.Locked_RMW_Read.miss_latency_hist_seqr |      312506    100.00%    100.00% |           0      0.00%    100.00% |           0      0.00%    100.00% |           0      0.00%    100.00% |           0      0.00%    100.00% |           0      0.00%    100.00% |           0      0.00%    100.00% |           0      0.00%    100.00% |           0      0.00%    100.00% |           0      0.00%    100.00%
system.ruby.Locked_RMW_Read.miss_latency_hist_seqr::total       312506                      
system.ruby.Locked_RMW_Write.hit_latency_hist_seqr::bucket_size            1                      
system.ruby.Locked_RMW_Write.hit_latency_hist_seqr::max_bucket            9                      
system.ruby.Locked_RMW_Write.hit_latency_hist_seqr::samples       499785                      
system.ruby.Locked_RMW_Write.hit_latency_hist_seqr |      499785    100.00%    100.00% |           0      0.00%    100.00% |           0      0.00%    100.00% |           0      0.00%    100.00% |           0      0.00%    100.00% |           0      0.00%    100.00% |           0      0.00%    100.00% |           0      0.00%    100.00% |           0      0.00%    100.00% |           0      0.00%    100.00%
system.ruby.Locked_RMW_Write.hit_latency_hist_seqr::total       499785                      
system.ruby.Locked_RMW_Write.latency_hist_seqr::bucket_size            1                      
system.ruby.Locked_RMW_Write.latency_hist_seqr::max_bucket            9                      
system.ruby.Locked_RMW_Write.latency_hist_seqr::samples       499785                      
system.ruby.Locked_RMW_Write.latency_hist_seqr |      499785    100.00%    100.00% |           0      0.00%    100.00% |           0      0.00%    100.00% |           0      0.00%    100.00% |           0      0.00%    100.00% |           0      0.00%    100.00% |           0      0.00%    100.00% |           0      0.00%    100.00% |           0      0.00%    100.00% |           0      0.00%    100.00%
system.ruby.Locked_RMW_Write.latency_hist_seqr::total       499785                      
system.ruby.RMW_Read.hit_latency_hist_seqr::bucket_size            1                      
system.ruby.RMW_Read.hit_latency_hist_seqr::max_bucket            9                      
system.ruby.RMW_Read.hit_latency_hist_seqr::samples       317065                      
system.ruby.RMW_Read.hit_latency_hist_seqr |      317065    100.00%    100.00% |           0      0.00%    100.00% |           0      0.00%    100.00% |           0      0.00%    100.00% |           0      0.00%    100.00% |           0      0.00%    100.00% |           0      0.00%    100.00% |           0      0.00%    100.00% |           0      0.00%    100.00% |           0      0.00%    100.00%
system.ruby.RMW_Read.hit_latency_hist_seqr::total       317065                      
system.ruby.RMW_Read.latency_hist_seqr::bucket_size            1                      
system.ruby.RMW_Read.latency_hist_seqr::max_bucket            9                      
system.ruby.RMW_Read.latency_hist_seqr::samples       432053                      
system.ruby.RMW_Read.latency_hist_seqr   |      432053    100.00%    100.00% |           0      0.00%    100.00% |           0      0.00%    100.00% |           0      0.00%    100.00% |           0      0.00%    100.00% |           0      0.00%    100.00% |           0      0.00%    100.00% |           0      0.00%    100.00% |           0      0.00%    100.00% |           0      0.00%    100.00%
system.ruby.RMW_Read.latency_hist_seqr::total       432053                      
system.ruby.RMW_Read.miss_latency_hist_seqr::bucket_size            1                      
system.ruby.RMW_Read.miss_latency_hist_seqr::max_bucket            9                      
system.ruby.RMW_Read.miss_latency_hist_seqr::samples       114988                      
system.ruby.RMW_Read.miss_latency_hist_seqr |      114988    100.00%    100.00% |           0      0.00%    100.00% |           0      0.00%    100.00% |           0      0.00%    100.00% |           0      0.00%    100.00% |           0      0.00%    100.00% |           0      0.00%    100.00% |           0      0.00%    100.00% |           0      0.00%    100.00% |           0      0.00%    100.00%
system.ruby.RMW_Read.miss_latency_hist_seqr::total       114988                      
system.ruby.ST.hit_latency_hist_seqr::bucket_size            1                      
system.ruby.ST.hit_latency_hist_seqr::max_bucket            9                      
system.ruby.ST.hit_latency_hist_seqr::samples     44015600                      
system.ruby.ST.hit_latency_hist_seqr     |    44015600    100.00%    100.00% |           0      0.00%    100.00% |           0      0.00%    100.00% |           0      0.00%    100.00% |           0      0.00%    100.00% |           0      0.00%    100.00% |           0      0.00%    100.00% |           0      0.00%    100.00% |           0      0.00%    100.00% |           0      0.00%    100.00%
system.ruby.ST.hit_latency_hist_seqr::total     44015600                      
system.ruby.ST.latency_hist_seqr::bucket_size            1                      
system.ruby.ST.latency_hist_seqr::max_bucket            9                      
system.ruby.ST.latency_hist_seqr::samples     45717767                      
system.ruby.ST.latency_hist_seqr         |    45717767    100.00%    100.00% |           0      0.00%    100.00% |           0      0.00%    100.00% |           0      0.00%    100.00% |           0      0.00%    100.00% |           0      0.00%    100.00% |           0      0.00%    100.00% |           0      0.00%    100.00% |           0      0.00%    100.00% |           0      0.00%    100.00%
system.ruby.ST.latency_hist_seqr::total      45717767                      
system.ruby.ST.miss_latency_hist_seqr::bucket_size            1                      
system.ruby.ST.miss_latency_hist_seqr::max_bucket            9                      
system.ruby.ST.miss_latency_hist_seqr::samples      1702167                      
system.ruby.ST.miss_latency_hist_seqr    |     1702167    100.00%    100.00% |           0      0.00%    100.00% |           0      0.00%    100.00% |           0      0.00%    100.00% |           0      0.00%    100.00% |           0      0.00%    100.00% |           0      0.00%    100.00% |           0      0.00%    100.00% |           0      0.00%    100.00% |           0      0.00%    100.00%
system.ruby.ST.miss_latency_hist_seqr::total      1702167                      
system.ruby.dir_cntrl0.fwdFrom.avg_buf_msgs     0.014557                       # Average number of messages in buffer
system.ruby.dir_cntrl0.fwdFrom.avg_stall_time  3000.019590                       # Average number of cycles messages are stalled in this MB
system.ruby.dir_cntrl0.reqTo.avg_buf_msgs     0.006361                       # Average number of messages in buffer
system.ruby.dir_cntrl0.reqTo.avg_stall_time  4373.046027                       # Average number of cycles messages are stalled in this MB
system.ruby.dir_cntrl0.requestToMemory.avg_buf_msgs     0.002515                       # Average number of messages in buffer
system.ruby.dir_cntrl0.requestToMemory.avg_stall_time   500.000009                       # Average number of cycles messages are stalled in this MB
system.ruby.dir_cntrl0.respFrom.avg_buf_msgs     0.014311                       # Average number of messages in buffer
system.ruby.dir_cntrl0.respFrom.avg_stall_time  2999.999716                       # Average number of cycles messages are stalled in this MB
system.ruby.dir_cntrl0.respTo.avg_buf_msgs     0.000052                       # Average number of messages in buffer
system.ruby.dir_cntrl0.respTo.avg_stall_time 24768.394933                       # Average number of cycles messages are stalled in this MB
system.ruby.dir_cntrl0.responseFromMemory.avg_buf_msgs     0.002519                       # Average number of messages in buffer
system.ruby.dir_cntrl0.responseFromMemory.avg_stall_time   499.999954                       # Average number of cycles messages are stalled in this MB
system.ruby.dir_cntrl1.fwdFrom.avg_buf_msgs     0.026095                       # Average number of messages in buffer
system.ruby.dir_cntrl1.fwdFrom.avg_stall_time  3000.316853                       # Average number of cycles messages are stalled in this MB
system.ruby.dir_cntrl1.reqTo.avg_buf_msgs     0.026831                       # Average number of messages in buffer
system.ruby.dir_cntrl1.reqTo.avg_stall_time  5570.939458                       # Average number of cycles messages are stalled in this MB
system.ruby.dir_cntrl1.requestToMemory.avg_buf_msgs     0.004448                       # Average number of messages in buffer
system.ruby.dir_cntrl1.requestToMemory.avg_stall_time   500.000066                       # Average number of cycles messages are stalled in this MB
system.ruby.dir_cntrl1.respFrom.avg_buf_msgs     0.023497                       # Average number of messages in buffer
system.ruby.dir_cntrl1.respFrom.avg_stall_time  2999.999396                       # Average number of cycles messages are stalled in this MB
system.ruby.dir_cntrl1.respTo.avg_buf_msgs     0.000460                       # Average number of messages in buffer
system.ruby.dir_cntrl1.respTo.avg_stall_time 24675.537880                       # Average number of cycles messages are stalled in this MB
system.ruby.dir_cntrl1.responseFromMemory.avg_buf_msgs     0.004460                       # Average number of messages in buffer
system.ruby.dir_cntrl1.responseFromMemory.avg_stall_time   499.999901                       # Average number of cycles messages are stalled in this MB
system.ruby.dir_cntrl2.fwdFrom.avg_buf_msgs     0.013318                       # Average number of messages in buffer
system.ruby.dir_cntrl2.fwdFrom.avg_stall_time  2999.969459                       # Average number of cycles messages are stalled in this MB
system.ruby.dir_cntrl2.reqTo.avg_buf_msgs     0.005180                       # Average number of messages in buffer
system.ruby.dir_cntrl2.reqTo.avg_stall_time  4246.576911                       # Average number of cycles messages are stalled in this MB
system.ruby.dir_cntrl2.requestToMemory.avg_buf_msgs     0.002326                       # Average number of messages in buffer
system.ruby.dir_cntrl2.requestToMemory.avg_stall_time   499.999943                       # Average number of cycles messages are stalled in this MB
system.ruby.dir_cntrl2.respFrom.avg_buf_msgs     0.013342                       # Average number of messages in buffer
system.ruby.dir_cntrl2.respFrom.avg_stall_time  2999.999393                       # Average number of cycles messages are stalled in this MB
system.ruby.dir_cntrl2.respTo.avg_buf_msgs     0.000024                       # Average number of messages in buffer
system.ruby.dir_cntrl2.respTo.avg_stall_time 24680.570067                       # Average number of cycles messages are stalled in this MB
system.ruby.dir_cntrl2.responseFromMemory.avg_buf_msgs     0.002328                       # Average number of messages in buffer
system.ruby.dir_cntrl2.responseFromMemory.avg_stall_time   499.999900                       # Average number of cycles messages are stalled in this MB
system.ruby.dir_cntrl3.fwdFrom.avg_buf_msgs     0.021660                       # Average number of messages in buffer
system.ruby.dir_cntrl3.fwdFrom.avg_stall_time  3000.001835                       # Average number of cycles messages are stalled in this MB
system.ruby.dir_cntrl3.reqTo.avg_buf_msgs     0.007765                       # Average number of messages in buffer
system.ruby.dir_cntrl3.reqTo.avg_stall_time  4185.496673                       # Average number of cycles messages are stalled in this MB
system.ruby.dir_cntrl3.requestToMemory.avg_buf_msgs     0.003545                       # Average number of messages in buffer
system.ruby.dir_cntrl3.requestToMemory.avg_stall_time   499.999998                       # Average number of cycles messages are stalled in this MB
system.ruby.dir_cntrl3.respFrom.avg_buf_msgs     0.020611                       # Average number of messages in buffer
system.ruby.dir_cntrl3.respFrom.avg_stall_time  2999.999719                       # Average number of cycles messages are stalled in this MB
system.ruby.dir_cntrl3.respTo.avg_buf_msgs     0.000031                       # Average number of messages in buffer
system.ruby.dir_cntrl3.respTo.avg_stall_time 24384.235379                       # Average number of cycles messages are stalled in this MB
system.ruby.dir_cntrl3.responseFromMemory.avg_buf_msgs     0.003553                       # Average number of messages in buffer
system.ruby.dir_cntrl3.responseFromMemory.avg_stall_time   499.999955                       # Average number of cycles messages are stalled in this MB
system.ruby.dma_cntrl0.cache.demand_accesses            0                       # Number of cache demand accesses
system.ruby.dma_cntrl0.cache.demand_hits            0                       # Number of cache demand hits
system.ruby.dma_cntrl0.cache.demand_misses            0                       # Number of cache demand misses
system.ruby.hit_latency_hist_seqr::bucket_size            1                      
system.ruby.hit_latency_hist_seqr::max_bucket            9                      
system.ruby.hit_latency_hist_seqr::samples   2482167710                      
system.ruby.hit_latency_hist_seqr        |  2482167710    100.00%    100.00% |           0      0.00%    100.00% |           0      0.00%    100.00% |           0      0.00%    100.00% |           0      0.00%    100.00% |           0      0.00%    100.00% |           0      0.00%    100.00% |           0      0.00%    100.00% |           0      0.00%    100.00% |           0      0.00%    100.00%
system.ruby.hit_latency_hist_seqr::total   2482167710                      
system.ruby.io_controller.cache.demand_accesses            0                       # Number of cache demand accesses
system.ruby.io_controller.cache.demand_hits            0                       # Number of cache demand hits
system.ruby.io_controller.cache.demand_misses            0                       # Number of cache demand misses
system.ruby.l1_cntrl0.cache.demand_accesses            0                       # Number of cache demand accesses
system.ruby.l1_cntrl0.cache.demand_hits             0                       # Number of cache demand hits
system.ruby.l1_cntrl0.cache.demand_misses            0                       # Number of cache demand misses
system.ruby.l1_cntrl0.fully_busy_cycles           223                       # cycles for which number of transistions == max transitions
system.ruby.l1_cntrl0.fwdFrom.avg_buf_msgs  2838.784610                       # Average number of messages in buffer
system.ruby.l1_cntrl0.fwdFrom.avg_stall_time  6487.043563                       # Average number of cycles messages are stalled in this MB
system.ruby.l1_cntrl0.mandatoryQueue.avg_buf_msgs     0.391149                       # Average number of messages in buffer
system.ruby.l1_cntrl0.mandatoryQueue.avg_stall_time  3245.602949                       # Average number of cycles messages are stalled in this MB
system.ruby.l1_cntrl0.reqTo.avg_buf_msgs     0.005784                       # Average number of messages in buffer
system.ruby.l1_cntrl0.reqTo.avg_stall_time   499.921360                       # Average number of cycles messages are stalled in this MB
system.ruby.l1_cntrl0.respFrom.avg_buf_msgs     0.003007                       # Average number of messages in buffer
system.ruby.l1_cntrl0.respFrom.avg_stall_time 16501.494532                       # Average number of cycles messages are stalled in this MB
system.ruby.l1_cntrl0.respTo.avg_buf_msgs     0.000193                       # Average number of messages in buffer
system.ruby.l1_cntrl0.respTo.avg_stall_time   635.349723                       # Average number of cycles messages are stalled in this MB
system.ruby.l1_cntrl1.cache.demand_accesses            0                       # Number of cache demand accesses
system.ruby.l1_cntrl1.cache.demand_hits             0                       # Number of cache demand hits
system.ruby.l1_cntrl1.cache.demand_misses            0                       # Number of cache demand misses
system.ruby.l1_cntrl1.fully_busy_cycles          2110                       # cycles for which number of transistions == max transitions
system.ruby.l1_cntrl1.fwdFrom.avg_buf_msgs  3966.224068                       # Average number of messages in buffer
system.ruby.l1_cntrl1.fwdFrom.avg_stall_time  6437.225250                       # Average number of cycles messages are stalled in this MB
system.ruby.l1_cntrl1.mandatoryQueue.avg_buf_msgs     0.372919                       # Average number of messages in buffer
system.ruby.l1_cntrl1.mandatoryQueue.avg_stall_time  3057.597979                       # Average number of cycles messages are stalled in this MB
system.ruby.l1_cntrl1.reqTo.avg_buf_msgs     0.006136                       # Average number of messages in buffer
system.ruby.l1_cntrl1.reqTo.avg_stall_time   499.999642                       # Average number of cycles messages are stalled in this MB
system.ruby.l1_cntrl1.respFrom.avg_buf_msgs     0.003621                       # Average number of messages in buffer
system.ruby.l1_cntrl1.respFrom.avg_stall_time 16623.138295                       # Average number of cycles messages are stalled in this MB
system.ruby.l1_cntrl1.respTo.avg_buf_msgs     0.001081                       # Average number of messages in buffer
system.ruby.l1_cntrl1.respTo.avg_stall_time   545.076189                       # Average number of cycles messages are stalled in this MB
system.ruby.l1_cntrl2.cache.demand_accesses            0                       # Number of cache demand accesses
system.ruby.l1_cntrl2.cache.demand_hits             0                       # Number of cache demand hits
system.ruby.l1_cntrl2.cache.demand_misses            0                       # Number of cache demand misses
system.ruby.l1_cntrl2.fully_busy_cycles          1858                       # cycles for which number of transistions == max transitions
system.ruby.l1_cntrl2.fwdFrom.avg_buf_msgs  3776.556688                       # Average number of messages in buffer
system.ruby.l1_cntrl2.fwdFrom.avg_stall_time  6684.043557                       # Average number of cycles messages are stalled in this MB
system.ruby.l1_cntrl2.mandatoryQueue.avg_buf_msgs     0.377704                       # Average number of messages in buffer
system.ruby.l1_cntrl2.mandatoryQueue.avg_stall_time  3325.546659                       # Average number of cycles messages are stalled in this MB
system.ruby.l1_cntrl2.reqTo.avg_buf_msgs     0.006298                       # Average number of messages in buffer
system.ruby.l1_cntrl2.reqTo.avg_stall_time   500.000032                       # Average number of cycles messages are stalled in this MB
system.ruby.l1_cntrl2.respFrom.avg_buf_msgs     0.003715                       # Average number of messages in buffer
system.ruby.l1_cntrl2.respFrom.avg_stall_time 16522.700519                       # Average number of cycles messages are stalled in this MB
system.ruby.l1_cntrl2.respTo.avg_buf_msgs     0.001065                       # Average number of messages in buffer
system.ruby.l1_cntrl2.respTo.avg_stall_time   575.488465                       # Average number of cycles messages are stalled in this MB
system.ruby.l1_cntrl3.cache.demand_accesses            0                       # Number of cache demand accesses
system.ruby.l1_cntrl3.cache.demand_hits             0                       # Number of cache demand hits
system.ruby.l1_cntrl3.cache.demand_misses            0                       # Number of cache demand misses
system.ruby.l1_cntrl3.fully_busy_cycles           206                       # cycles for which number of transistions == max transitions
system.ruby.l1_cntrl3.fwdFrom.avg_buf_msgs  4945.492582                       # Average number of messages in buffer
system.ruby.l1_cntrl3.fwdFrom.avg_stall_time  6592.639794                       # Average number of cycles messages are stalled in this MB
system.ruby.l1_cntrl3.mandatoryQueue.avg_buf_msgs     0.393193                       # Average number of messages in buffer
system.ruby.l1_cntrl3.mandatoryQueue.avg_stall_time  3110.547856                       # Average number of cycles messages are stalled in this MB
system.ruby.l1_cntrl3.reqTo.avg_buf_msgs     0.005778                       # Average number of messages in buffer
system.ruby.l1_cntrl3.reqTo.avg_stall_time   500.000004                       # Average number of cycles messages are stalled in this MB
system.ruby.l1_cntrl3.respFrom.avg_buf_msgs     0.003023                       # Average number of messages in buffer
system.ruby.l1_cntrl3.respFrom.avg_stall_time 16697.868141                       # Average number of cycles messages are stalled in this MB
system.ruby.l1_cntrl3.respTo.avg_buf_msgs     0.000201                       # Average number of messages in buffer
system.ruby.l1_cntrl3.respTo.avg_stall_time   709.150674                       # Average number of cycles messages are stalled in this MB
system.ruby.latency_hist_seqr::bucket_size            1                      
system.ruby.latency_hist_seqr::max_bucket            9                      
system.ruby.latency_hist_seqr::samples     2507059800                      
system.ruby.latency_hist_seqr            |  2507059800    100.00%    100.00% |           0      0.00%    100.00% |           0      0.00%    100.00% |           0      0.00%    100.00% |           0      0.00%    100.00% |           0      0.00%    100.00% |           0      0.00%    100.00% |           0      0.00%    100.00% |           0      0.00%    100.00% |           0      0.00%    100.00%
system.ruby.latency_hist_seqr::total       2507059800                      
system.ruby.miss_latency_hist_seqr::bucket_size            1                      
system.ruby.miss_latency_hist_seqr::max_bucket            9                      
system.ruby.miss_latency_hist_seqr::samples     24892090                      
system.ruby.miss_latency_hist_seqr       |    24892090    100.00%    100.00% |           0      0.00%    100.00% |           0      0.00%    100.00% |           0      0.00%    100.00% |           0      0.00%    100.00% |           0      0.00%    100.00% |           0      0.00%    100.00% |           0      0.00%    100.00% |           0      0.00%    100.00% |           0      0.00%    100.00%
system.ruby.miss_latency_hist_seqr::total     24892090                      
system.ruby.network.average_flit_latency    16.871146                      
system.ruby.network.average_flit_network_latency    12.395569                      
system.ruby.network.average_flit_queueing_latency     4.475577                      
system.ruby.network.average_flit_vnet_latency |   16.329357                       |    5.028794                       |    5.615424                       |         nan                       |         nan                       |         nan                       |         nan                       |         nan                      
system.ruby.network.average_flit_vqueue_latency |    5.493219                       |    6.000328                       |    1.000000                       |         nan                       |         nan                       |         nan                       |         nan                       |         nan                      
system.ruby.network.average_hops             1.032027                      
system.ruby.network.average_packet_latency    14.237209                      
system.ruby.network.average_packet_network_latency    10.792671                      
system.ruby.network.average_packet_queueing_latency     3.444537                      
system.ruby.network.average_packet_vnet_latency |   25.553780                       |    5.028794                       |    5.262544                       |         nan                       |         nan                       |         nan                       |         nan                       |         nan                      
system.ruby.network.average_packet_vqueue_latency |    5.332834                       |    6.000328                       |    1.000000                       |         nan                       |         nan                       |         nan                       |         nan                       |         nan                      
system.ruby.network.avg_link_utilization     0.318534                      
system.ruby.network.avg_vc_load          |    0.150274     47.18%     47.18% |    0.020925      6.57%     53.75% |    0.016858      5.29%     59.04% |    0.016803      5.28%     64.31% |    0.028424      8.92%     73.24% |    0.003225      1.01%     74.25% |    0.003165      0.99%     75.24% |    0.003164      0.99%     76.24% |    0.056250     17.66%     93.89% |    0.006833      2.15%     96.04% |    0.006310      1.98%     98.02% |    0.006303      1.98%    100.00% |           0      0.00%    100.00% |           0      0.00%    100.00% |           0      0.00%    100.00% |           0      0.00%    100.00% |           0      0.00%    100.00% |           0      0.00%    100.00% |           0      0.00%    100.00% |           0      0.00%    100.00% |           0      0.00%    100.00% |           0      0.00%    100.00% |           0      0.00%    100.00% |           0      0.00%    100.00% |           0      0.00%    100.00% |           0      0.00%    100.00% |           0      0.00%    100.00% |           0      0.00%    100.00% |           0      0.00%    100.00% |           0      0.00%    100.00% |           0      0.00%    100.00% |           0      0.00%    100.00%
system.ruby.network.avg_vc_load::total       0.318534                      
system.ruby.network.ext_in_link_utilization    205207217                      
system.ruby.network.ext_out_link_utilization    205207217                      
system.ruby.network.flit_network_latency |  2142672091                       |   124335197                       |   276652918                       |           0                       |           0                       |           0                       |           0                       |           0                      
system.ruby.network.flit_queueing_latency |   720797944                       |   148356037                       |    49266629                       |           0                       |           0                       |           0                       |           0                       |           0                      
system.ruby.network.flits_injected       |   131215949     63.94%     63.94% |    24724656     12.05%     75.99% |    49266612     24.01%    100.00% |           0      0.00%    100.00% |           0      0.00%    100.00% |           0      0.00%    100.00% |           0      0.00%    100.00% |           0      0.00%    100.00%
system.ruby.network.flits_injected::total    205207217                      
system.ruby.network.flits_received       |   131215949     63.94%     63.94% |    24724656     12.05%     75.99% |    49266612     24.01%    100.00% |           0      0.00%    100.00% |           0      0.00%    100.00% |           0      0.00%    100.00% |           0      0.00%    100.00% |           0      0.00%    100.00%
system.ruby.network.flits_received::total    205207217                      
system.ruby.network.int_link_utilization    211779309                      
system.ruby.network.packet_network_latency |   695436335                       |   124335197                       |   246665859                       |           0                       |           0                       |           0                       |           0                       |           0                      
system.ruby.network.packet_queueing_latency |   145131048                       |   148356037                       |    46871993                       |           0                       |           0                       |           0                       |           0                       |           0                      
system.ruby.network.packets_injected     |    27214617     27.54%     27.54% |    24724656     25.02%     52.56% |    46871984     47.44%    100.00% |           0      0.00%    100.00% |           0      0.00%    100.00% |           0      0.00%    100.00% |           0      0.00%    100.00% |           0      0.00%    100.00%
system.ruby.network.packets_injected::total     98811257                      
system.ruby.network.packets_received     |    27214617     27.54%     27.54% |    24724656     25.02%     52.56% |    46871984     47.44%    100.00% |           0      0.00%    100.00% |           0      0.00%    100.00% |           0      0.00%    100.00% |           0      0.00%    100.00% |           0      0.00%    100.00%
system.ruby.network.packets_received::total     98811257                      
system.ruby.network.routers0.buffer_reads     95239850                      
system.ruby.network.routers0.buffer_writes     95239850                      
system.ruby.network.routers0.crossbar_activity     95239850                      
system.ruby.network.routers0.sw_input_arbiter_activity     95429761                      
system.ruby.network.routers0.sw_output_arbiter_activity     95239850                      
system.ruby.network.routers1.buffer_reads    116844750                      
system.ruby.network.routers1.buffer_writes    116844750                      
system.ruby.network.routers1.crossbar_activity    116844750                      
system.ruby.network.routers1.sw_input_arbiter_activity    117474716                      
system.ruby.network.routers1.sw_output_arbiter_activity    116844750                      
system.ruby.network.routers2.buffer_reads     99497956                      
system.ruby.network.routers2.buffer_writes     99497956                      
system.ruby.network.routers2.crossbar_activity     99497956                      
system.ruby.network.routers2.sw_input_arbiter_activity     99661812                      
system.ruby.network.routers2.sw_output_arbiter_activity     99497956                      
system.ruby.network.routers3.buffer_reads    105403970                      
system.ruby.network.routers3.buffer_writes    105403970                      
system.ruby.network.routers3.crossbar_activity    105403970                      
system.ruby.network.routers3.sw_input_arbiter_activity    105645654                      
system.ruby.network.routers3.sw_output_arbiter_activity    105403970                      
system.ruby.outstanding_req_hist_seqr::bucket_size            1                      
system.ruby.outstanding_req_hist_seqr::max_bucket            9                      
system.ruby.outstanding_req_hist_seqr::samples   2507059800                      
system.ruby.outstanding_req_hist_seqr::mean     1.004241                      
system.ruby.outstanding_req_hist_seqr::gmean     1.002944                      
system.ruby.outstanding_req_hist_seqr::stdev     0.064982                      
system.ruby.outstanding_req_hist_seqr    |           0      0.00%      0.00% |  2496428140     99.58%     99.58% |    10631660      0.42%    100.00% |           0      0.00%    100.00% |           0      0.00%    100.00% |           0      0.00%    100.00% |           0      0.00%    100.00% |           0      0.00%    100.00% |           0      0.00%    100.00% |           0      0.00%    100.00%
system.ruby.outstanding_req_hist_seqr::total   2507059800                      
system.switch_cpus0.Branches                 40720528                       # Number of branches fetched
system.switch_cpus0.committedInsts          345647403                       # Number of instructions committed
system.switch_cpus0.committedOps            626063669                       # Number of ops (including micro ops) committed
system.switch_cpus0.dtb.rdAccesses          131833078                       # TLB accesses on read requests
system.switch_cpus0.dtb.rdMisses               938899                       # TLB misses on read requests
system.switch_cpus0.dtb.wrAccesses           12206871                       # TLB accesses on write requests
system.switch_cpus0.dtb.wrMisses                30637                       # TLB misses on write requests
system.switch_cpus0.idle_fraction            0.031668                       # Percentage of idle cycles
system.switch_cpus0.itb.rdAccesses                  0                       # TLB accesses on read requests
system.switch_cpus0.itb.rdMisses                    0                       # TLB misses on read requests
system.switch_cpus0.itb.wrAccesses          491912586                       # TLB accesses on write requests
system.switch_cpus0.itb.wrMisses                74523                       # TLB misses on write requests
system.switch_cpus0.kern.inst.arm                   0                       # number of arm instructions executed
system.switch_cpus0.kern.inst.quiesce               0                       # number of quiesce instructions executed
system.switch_cpus0.not_idle_fraction        0.968332                       # Percentage of non-idle cycles
system.switch_cpus0.numCycles              1952445517                       # number of cpu cycles simulated
system.switch_cpus0.numWorkItemsCompleted            0                       # number of work items this cpu completed
system.switch_cpus0.numWorkItemsStarted             0                       # number of work items this cpu started
system.switch_cpus0.num_busy_cycles      1890614911.199675                       # Number of busy cycles
system.switch_cpus0.num_cc_register_reads    208612216                       # number of times the CC registers were read
system.switch_cpus0.num_cc_register_writes    135501460                       # number of times the CC registers were written
system.switch_cpus0.num_conditional_control_insts     38142290                       # number of instructions that are conditional controls
system.switch_cpus0.num_fp_alu_accesses     319457829                       # Number of float alu accesses
system.switch_cpus0.num_fp_insts            319457829                       # number of float instructions
system.switch_cpus0.num_fp_register_reads    408362074                       # number of times the floating registers were read
system.switch_cpus0.num_fp_register_writes    315268419                       # number of times the floating registers were written
system.switch_cpus0.num_func_calls             822387                       # number of times a function call or return occured
system.switch_cpus0.num_idle_cycles      61830605.800325                       # Number of idle cycles
system.switch_cpus0.num_int_alu_accesses    397647270                       # Number of integer alu accesses
system.switch_cpus0.num_int_insts           397647270                       # number of integer instructions
system.switch_cpus0.num_int_register_reads    794419785                       # number of times the integer registers were read
system.switch_cpus0.num_int_register_writes    253407573                       # number of times the integer registers were written
system.switch_cpus0.num_load_insts          128232481                       # Number of load instructions
system.switch_cpus0.num_mem_refs            140408912                       # number of memory refs
system.switch_cpus0.num_store_insts          12176431                       # Number of store instructions
system.switch_cpus0.num_vec_alu_accesses            0                       # Number of vector alu accesses
system.switch_cpus0.num_vec_insts                   0                       # number of vector instructions
system.switch_cpus0.num_vec_register_reads            0                       # number of times the vector registers were read
system.switch_cpus0.num_vec_register_writes            0                       # number of times the vector registers were written
system.switch_cpus0.op_class::No_OpClass      2977965      0.48%      0.48% # Class of executed instruction
system.switch_cpus0.op_class::IntAlu        257800967     41.18%     41.65% # Class of executed instruction
system.switch_cpus0.op_class::IntMult           27284      0.00%     41.66% # Class of executed instruction
system.switch_cpus0.op_class::IntDiv            75884      0.01%     41.67% # Class of executed instruction
system.switch_cpus0.op_class::FloatAdd       87851035     14.03%     55.70% # Class of executed instruction
system.switch_cpus0.op_class::FloatCmp              0      0.00%     55.70% # Class of executed instruction
system.switch_cpus0.op_class::FloatCvt           3184      0.00%     55.70% # Class of executed instruction
system.switch_cpus0.op_class::FloatMult             0      0.00%     55.70% # Class of executed instruction
system.switch_cpus0.op_class::FloatMultAcc            0      0.00%     55.70% # Class of executed instruction
system.switch_cpus0.op_class::FloatDiv              0      0.00%     55.70% # Class of executed instruction
system.switch_cpus0.op_class::FloatMisc             0      0.00%     55.70% # Class of executed instruction
system.switch_cpus0.op_class::FloatSqrt             0      0.00%     55.70% # Class of executed instruction
system.switch_cpus0.op_class::SimdAdd              56      0.00%     55.70% # Class of executed instruction
system.switch_cpus0.op_class::SimdAddAcc            0      0.00%     55.70% # Class of executed instruction
system.switch_cpus0.op_class::SimdAlu         2600345      0.42%     56.12% # Class of executed instruction
system.switch_cpus0.op_class::SimdCmp               0      0.00%     56.12% # Class of executed instruction
system.switch_cpus0.op_class::SimdCvt             112      0.00%     56.12% # Class of executed instruction
system.switch_cpus0.op_class::SimdMisc          20518      0.00%     56.12% # Class of executed instruction
system.switch_cpus0.op_class::SimdMult              0      0.00%     56.12% # Class of executed instruction
system.switch_cpus0.op_class::SimdMultAcc            0      0.00%     56.12% # Class of executed instruction
system.switch_cpus0.op_class::SimdShift            24      0.00%     56.12% # Class of executed instruction
system.switch_cpus0.op_class::SimdShiftAcc            0      0.00%     56.12% # Class of executed instruction
system.switch_cpus0.op_class::SimdDiv               0      0.00%     56.12% # Class of executed instruction
system.switch_cpus0.op_class::SimdSqrt              0      0.00%     56.12% # Class of executed instruction
system.switch_cpus0.op_class::SimdFloatAdd     87749352     14.02%     70.14% # Class of executed instruction
system.switch_cpus0.op_class::SimdFloatAlu            0      0.00%     70.14% # Class of executed instruction
system.switch_cpus0.op_class::SimdFloatCmp            0      0.00%     70.14% # Class of executed instruction
system.switch_cpus0.op_class::SimdFloatCvt      2629969      0.42%     70.56% # Class of executed instruction
system.switch_cpus0.op_class::SimdFloatDiv           13      0.00%     70.56% # Class of executed instruction
system.switch_cpus0.op_class::SimdFloatMisc            0      0.00%     70.56% # Class of executed instruction
system.switch_cpus0.op_class::SimdFloatMult     43918050      7.01%     77.57% # Class of executed instruction
system.switch_cpus0.op_class::SimdFloatMultAcc            0      0.00%     77.57% # Class of executed instruction
system.switch_cpus0.op_class::SimdFloatSqrt            0      0.00%     77.57% # Class of executed instruction
system.switch_cpus0.op_class::SimdReduceAdd            0      0.00%     77.57% # Class of executed instruction
system.switch_cpus0.op_class::SimdReduceAlu            0      0.00%     77.57% # Class of executed instruction
system.switch_cpus0.op_class::SimdReduceCmp            0      0.00%     77.57% # Class of executed instruction
system.switch_cpus0.op_class::SimdFloatReduceAdd            0      0.00%     77.57% # Class of executed instruction
system.switch_cpus0.op_class::SimdFloatReduceCmp            0      0.00%     77.57% # Class of executed instruction
system.switch_cpus0.op_class::SimdAes               0      0.00%     77.57% # Class of executed instruction
system.switch_cpus0.op_class::SimdAesMix            0      0.00%     77.57% # Class of executed instruction
system.switch_cpus0.op_class::SimdSha1Hash            0      0.00%     77.57% # Class of executed instruction
system.switch_cpus0.op_class::SimdSha1Hash2            0      0.00%     77.57% # Class of executed instruction
system.switch_cpus0.op_class::SimdSha256Hash            0      0.00%     77.57% # Class of executed instruction
system.switch_cpus0.op_class::SimdSha256Hash2            0      0.00%     77.57% # Class of executed instruction
system.switch_cpus0.op_class::SimdShaSigma2            0      0.00%     77.57% # Class of executed instruction
system.switch_cpus0.op_class::SimdShaSigma3            0      0.00%     77.57% # Class of executed instruction
system.switch_cpus0.op_class::SimdPredAlu            0      0.00%     77.57% # Class of executed instruction
system.switch_cpus0.op_class::MemRead        36401251      5.81%     83.39% # Class of executed instruction
system.switch_cpus0.op_class::MemWrite        9328460      1.49%     84.88% # Class of executed instruction
system.switch_cpus0.op_class::FloatMemRead     91831230     14.67%     99.55% # Class of executed instruction
system.switch_cpus0.op_class::FloatMemWrite      2847971      0.45%    100.00% # Class of executed instruction
system.switch_cpus0.op_class::IprAccess             0      0.00%    100.00% # Class of executed instruction
system.switch_cpus0.op_class::InstPrefetch            0      0.00%    100.00% # Class of executed instruction
system.switch_cpus0.op_class::total         626063670                       # Class of executed instruction
system.switch_cpus1.Branches                 37040317                       # Number of branches fetched
system.switch_cpus1.committedInsts          329610314                       # Number of instructions committed
system.switch_cpus1.committedOps            598218694                       # Number of ops (including micro ops) committed
system.switch_cpus1.dtb.rdAccesses          126442266                       # TLB accesses on read requests
system.switch_cpus1.dtb.rdMisses               949574                       # TLB misses on read requests
system.switch_cpus1.dtb.wrAccesses           10327868                       # TLB accesses on write requests
system.switch_cpus1.dtb.wrMisses                29595                       # TLB misses on write requests
system.switch_cpus1.idle_fraction            0.032135                       # Percentage of idle cycles
system.switch_cpus1.itb.rdAccesses                  0                       # TLB accesses on read requests
system.switch_cpus1.itb.rdMisses                    0                       # TLB misses on read requests
system.switch_cpus1.itb.wrAccesses          470431357                       # TLB accesses on write requests
system.switch_cpus1.itb.wrMisses                70216                       # TLB misses on write requests
system.switch_cpus1.kern.inst.arm                   0                       # number of arm instructions executed
system.switch_cpus1.kern.inst.quiesce               0                       # number of quiesce instructions executed
system.switch_cpus1.not_idle_fraction        0.967865                       # Percentage of non-idle cycles
system.switch_cpus1.numCycles              1952693677                       # number of cpu cycles simulated
system.switch_cpus1.numWorkItemsCompleted            0                       # number of work items this cpu completed
system.switch_cpus1.numWorkItemsStarted             0                       # number of work items this cpu started
system.switch_cpus1.num_busy_cycles      1889944256.301477                       # Number of busy cycles
system.switch_cpus1.num_cc_register_reads    188761890                       # number of times the CC registers were read
system.switch_cpus1.num_cc_register_writes    124971969                       # number of times the CC registers were written
system.switch_cpus1.num_conditional_control_insts     34613620                       # number of instructions that are conditional controls
system.switch_cpus1.num_fp_alu_accesses     318999214                       # Number of float alu accesses
system.switch_cpus1.num_fp_insts            318999214                       # number of float instructions
[...]
system.mem_ctrls1.llc.ReadReq_avg_mshr_miss_latency::.ruby.dir_cntrl1 59407.124405                       # average ReadReq mshr miss latency
system.mem_ctrls1.llc.ReadReq_avg_mshr_miss_latency::total 59407.124405                       # average ReadReq mshr miss latency
system.mem_ctrls1.llc.WriteReq_hits::.ruby.dir_cntrl1      1038498                       # number of WriteReq hits
system.mem_ctrls1.llc.WriteReq_hits::total      1038498                       # number of WriteReq hits
system.mem_ctrls1.llc.WriteReq_accesses::.ruby.dir_cntrl1      1038498                       # number of WriteReq accesses(hits+misses)
system.mem_ctrls1.llc.WriteReq_accesses::total      1038498                       # number of WriteReq accesses(hits+misses)
system.mem_ctrls1.llc.power_state.pwrStateResidencyTicks::UNDEFINED 100718760440001                       # Cumulative time (in ticks) in various power states
system.mem_ctrls1.llc.tags.tagsinuse      5207.459976                       # Cycle average of tags in use
system.mem_ctrls1.llc.tags.total_refs               0                       # Total number of references to valid blocks.
system.mem_ctrls1.llc.tags.sampled_refs             0                       # Sample count of references to valid blocks.
system.mem_ctrls1.llc.tags.avg_refs               nan                       # Average number of references to valid blocks.
system.mem_ctrls1.llc.tags.warmup_cycle  99742109488500                       # Cycle when the warmup percentage was hit.
system.mem_ctrls1.llc.tags.occ_blocks::.ruby.dir_cntrl1  5207.459976                       # Average occupied blocks per requestor
system.mem_ctrls1.llc.tags.occ_percent::.ruby.dir_cntrl1     0.019865                       # Average percentage of cache occupancy
system.mem_ctrls1.llc.tags.occ_percent::total     0.019865                       # Average percentage of cache occupancy
system.mem_ctrls1.llc.tags.occ_task_id_blocks::1024         6302                       # Occupied blocks per task id
system.mem_ctrls1.llc.tags.age_task_id_blocks_1024::0            6                       # Occupied blocks per task id
system.mem_ctrls1.llc.tags.age_task_id_blocks_1024::1           36                       # Occupied blocks per task id
system.mem_ctrls1.llc.tags.age_task_id_blocks_1024::2           15                       # Occupied blocks per task id
system.mem_ctrls1.llc.tags.age_task_id_blocks_1024::3          808                       # Occupied blocks per task id
system.mem_ctrls1.llc.tags.age_task_id_blocks_1024::4         5437                       # Occupied blocks per task id
system.mem_ctrls1.llc.tags.occ_task_id_percent::1024     0.024040                       # Percentage of cache occupancy per task id
system.mem_ctrls1.llc.tags.tag_accesses     139012590                       # Number of tag accesses
system.mem_ctrls1.llc.tags.data_accesses      8687893                       # Number of data accesses
system.mem_ctrls1.llc.tags.power_state.pwrStateResidencyTicks::UNDEFINED 100718760440001                       # Cumulative time (in ticks) in various power states
system.mem_ctrls1.rank1.actEnergy             6661620                       # Energy for activate commands per rank (pJ)
system.mem_ctrls1.rank1.preEnergy             3540735                       # Energy for precharge commands per rank (pJ)
system.mem_ctrls1.rank1.readEnergy           22433880                       # Energy for read commands per rank (pJ)
system.mem_ctrls1.rank1.writeEnergy                 0                       # Energy for write commands per rank (pJ)
system.mem_ctrls1.rank1.refreshEnergy    77095524480.000015                       # Energy for refresh commands per rank (pJ)
system.mem_ctrls1.rank1.actBackEnergy     15291510270                       # Energy for active background per rank (pJ)
system.mem_ctrls1.rank1.preBackEnergy    362156634720                       # Energy for precharge background per rank (pJ)
system.mem_ctrls1.rank1.actPowerDownEnergy            0                       # Energy for active power-down per rank (pJ)
system.mem_ctrls1.rank1.prePowerDownEnergy            0                       # Energy for precharge power-down per rank (pJ)
system.mem_ctrls1.rank1.selfRefreshEnergy            0                       # Energy for self refresh per rank (pJ)
system.mem_ctrls1.rank1.totalEnergy      454576305705                       # Total energy per rank (pJ)
system.mem_ctrls1.rank1.averagePower       465.443898                       # Core power per rank (mW)
system.mem_ctrls1.rank1.totalIdleTime               0                       # Total Idle time Per DRAM Rank
system.mem_ctrls1.rank1.memoryStateTime::IDLE 941385555251                       # Time in different power states
system.mem_ctrls1.rank1.memoryStateTime::REF  32612320000                       # Time in different power states
system.mem_ctrls1.rank1.memoryStateTime::SREF            0                       # Time in different power states
system.mem_ctrls1.rank1.memoryStateTime::PRE_PDN            0                       # Time in different power states
system.mem_ctrls1.rank1.memoryStateTime::ACT   2653248750                       # Time in different power states
system.mem_ctrls1.rank1.memoryStateTime::ACT_PDN            0                       # Time in different power states
system.mem_ctrls1.rank0.actEnergy             8303820                       # Energy for activate commands per rank (pJ)
system.mem_ctrls1.rank0.preEnergy             4409790                       # Energy for precharge commands per rank (pJ)
system.mem_ctrls1.rank0.readEnergy           22562400                       # Energy for read commands per rank (pJ)
system.mem_ctrls1.rank0.writeEnergy                 0                       # Energy for write commands per rank (pJ)
system.mem_ctrls1.rank0.refreshEnergy    77095524480.000015                       # Energy for refresh commands per rank (pJ)
system.mem_ctrls1.rank0.actBackEnergy     15410085660                       # Energy for active background per rank (pJ)
system.mem_ctrls1.rank0.preBackEnergy    362057071680                       # Energy for precharge background per rank (pJ)
system.mem_ctrls1.rank0.actPowerDownEnergy            0                       # Energy for active power-down per rank (pJ)
system.mem_ctrls1.rank0.prePowerDownEnergy            0                       # Energy for precharge power-down per rank (pJ)
system.mem_ctrls1.rank0.selfRefreshEnergy            0                       # Energy for self refresh per rank (pJ)
system.mem_ctrls1.rank0.totalEnergy      454597957830                       # Total energy per rank (pJ)
system.mem_ctrls1.rank0.averagePower       465.466067                       # Core power per rank (mW)
system.mem_ctrls1.rank0.totalIdleTime               0                       # Total Idle time Per DRAM Rank
system.mem_ctrls1.rank0.memoryStateTime::IDLE 941124746000                       # Time in different power states
system.mem_ctrls1.rank0.memoryStateTime::REF  32612320000                       # Time in different power states
system.mem_ctrls1.rank0.memoryStateTime::SREF            0                       # Time in different power states
system.mem_ctrls1.rank0.memoryStateTime::PRE_PDN            0                       # Time in different power states
system.mem_ctrls1.rank0.memoryStateTime::ACT   2914058001                       # Time in different power states
system.mem_ctrls1.rank0.memoryStateTime::ACT_PDN            0                       # Time in different power states
system.mem_ctrls1.power_state.pwrStateResidencyTicks::UNDEFINED 100718760440001                       # Cumulative time (in ticks) in various power states
system.cpu_voltage_domain.voltage                   1                       # Voltage in Volts
system.iobus.trans_dist::ReadReq                 1246                       # Transaction distribution
system.iobus.trans_dist::ReadResp                1246                       # Transaction distribution
system.iobus.trans_dist::WriteReq                7625                       # Transaction distribution
system.iobus.trans_dist::WriteResp               7625                       # Transaction distribution
system.iobus.pkt_count_system.pc.south_bridge.io_apic.int_master::system.ruby.l1_cntrl1.sequencer.pio-slave-port          270                       # Packet count per connected master and slave (bytes)
system.iobus.pkt_count_system.pc.south_bridge.io_apic.int_master::total          270                       # Packet count per connected master and slave (bytes)
system.iobus.pkt_count_system.ruby.l1_cntrl0.sequencer.mem-master-port::system.ruby.l1_cntrl0.sequencer.pio-slave-port         3660                       # Packet count per connected master and slave (bytes)
system.iobus.pkt_count_system.ruby.l1_cntrl0.sequencer.mem-master-port::system.ruby.l1_cntrl1.sequencer.pio-slave-port          138                       # Packet count per connected master and slave (bytes)
system.iobus.pkt_count_system.ruby.l1_cntrl0.sequencer.mem-master-port::system.ruby.l1_cntrl2.sequencer.pio-slave-port          196                       # Packet count per connected master and slave (bytes)
system.iobus.pkt_count_system.ruby.l1_cntrl0.sequencer.mem-master-port::system.ruby.l1_cntrl3.sequencer.pio-slave-port          116                       # Packet count per connected master and slave (bytes)
system.iobus.pkt_count_system.ruby.l1_cntrl0.sequencer.mem-master-port::total         4110                       # Packet count per connected master and slave (bytes)
system.iobus.pkt_count_system.ruby.l1_cntrl1.sequencer.mem-master-port::system.pc.com_1.pio         1092                       # Packet count per connected master and slave (bytes)
system.iobus.pkt_count_system.ruby.l1_cntrl1.sequencer.mem-master-port::system.ruby.l1_cntrl0.sequencer.pio-slave-port           68                       # Packet count per connected master and slave (bytes)
system.iobus.pkt_count_system.ruby.l1_cntrl1.sequencer.mem-master-port::system.ruby.l1_cntrl1.sequencer.pio-slave-port         3262                       # Packet count per connected master and slave (bytes)
system.iobus.pkt_count_system.ruby.l1_cntrl1.sequencer.mem-master-port::system.ruby.l1_cntrl2.sequencer.pio-slave-port           96                       # Packet count per connected master and slave (bytes)
system.iobus.pkt_count_system.ruby.l1_cntrl1.sequencer.mem-master-port::system.ruby.l1_cntrl3.sequencer.pio-slave-port          116                       # Packet count per connected master and slave (bytes)
system.iobus.pkt_count_system.ruby.l1_cntrl1.sequencer.mem-master-port::total         4634                       # Packet count per connected master and slave (bytes)
system.iobus.pkt_count_system.ruby.l1_cntrl2.sequencer.mem-master-port::system.ruby.l1_cntrl0.sequencer.pio-slave-port          122                       # Packet count per connected master and slave (bytes)
system.iobus.pkt_count_system.ruby.l1_cntrl2.sequencer.mem-master-port::system.ruby.l1_cntrl1.sequencer.pio-slave-port          140                       # Packet count per connected master and slave (bytes)
system.iobus.pkt_count_system.ruby.l1_cntrl2.sequencer.mem-master-port::system.ruby.l1_cntrl2.sequencer.pio-slave-port         3712                       # Packet count per connected master and slave (bytes)
system.iobus.pkt_count_system.ruby.l1_cntrl2.sequencer.mem-master-port::system.ruby.l1_cntrl3.sequencer.pio-slave-port          180                       # Packet count per connected master and slave (bytes)
system.iobus.pkt_count_system.ruby.l1_cntrl2.sequencer.mem-master-port::total         4154                       # Packet count per connected master and slave (bytes)
system.iobus.pkt_count_system.ruby.l1_cntrl3.sequencer.mem-master-port::system.ruby.l1_cntrl0.sequencer.pio-slave-port          208                       # Packet count per connected master and slave (bytes)
system.iobus.pkt_count_system.ruby.l1_cntrl3.sequencer.mem-master-port::system.ruby.l1_cntrl1.sequencer.pio-slave-port          182                       # Packet count per connected master and slave (bytes)
system.iobus.pkt_count_system.ruby.l1_cntrl3.sequencer.mem-master-port::system.ruby.l1_cntrl2.sequencer.pio-slave-port          170                       # Packet count per connected master and slave (bytes)
system.iobus.pkt_count_system.ruby.l1_cntrl3.sequencer.mem-master-port::system.ruby.l1_cntrl3.sequencer.pio-slave-port         4014                       # Packet count per connected master and slave (bytes)
system.iobus.pkt_count_system.ruby.l1_cntrl3.sequencer.mem-master-port::total         4574                       # Packet count per connected master and slave (bytes)
system.iobus.pkt_count::total                   17742                       # Packet count per connected master and slave (bytes)
system.iobus.pkt_size_system.pc.south_bridge.io_apic.int_master::system.ruby.l1_cntrl1.sequencer.pio-slave-port          540                       # Cumulative packet size per connected master and slave (bytes)
system.iobus.pkt_size_system.pc.south_bridge.io_apic.int_master::total          540                       # Cumulative packet size per connected master and slave (bytes)
system.iobus.pkt_size_system.ruby.l1_cntrl0.sequencer.mem-master-port::system.ruby.l1_cntrl0.sequencer.pio-slave-port         7320                       # Cumulative packet size per connected master and slave (bytes)
system.iobus.pkt_size_system.ruby.l1_cntrl0.sequencer.mem-master-port::system.ruby.l1_cntrl1.sequencer.pio-slave-port          276                       # Cumulative packet size per connected master and slave (bytes)
system.iobus.pkt_size_system.ruby.l1_cntrl0.sequencer.mem-master-port::system.ruby.l1_cntrl2.sequencer.pio-slave-port          392                       # Cumulative packet size per connected master and slave (bytes)
system.iobus.pkt_size_system.ruby.l1_cntrl0.sequencer.mem-master-port::system.ruby.l1_cntrl3.sequencer.pio-slave-port          232                       # Cumulative packet size per connected master and slave (bytes)
system.iobus.pkt_size_system.ruby.l1_cntrl0.sequencer.mem-master-port::total         8220                       # Cumulative packet size per connected master and slave (bytes)
system.iobus.pkt_size_system.ruby.l1_cntrl1.sequencer.mem-master-port::system.pc.com_1.pio          546                       # Cumulative packet size per connected master and slave (bytes)
system.iobus.pkt_size_system.ruby.l1_cntrl1.sequencer.mem-master-port::system.ruby.l1_cntrl0.sequencer.pio-slave-port          136                       # Cumulative packet size per connected master and slave (bytes)
system.iobus.pkt_size_system.ruby.l1_cntrl1.sequencer.mem-master-port::system.ruby.l1_cntrl1.sequencer.pio-slave-port         6524                       # Cumulative packet size per connected master and slave (bytes)
system.iobus.pkt_size_system.ruby.l1_cntrl1.sequencer.mem-master-port::system.ruby.l1_cntrl2.sequencer.pio-slave-port          192                       # Cumulative packet size per connected master and slave (bytes)
system.iobus.pkt_size_system.ruby.l1_cntrl1.sequencer.mem-master-port::system.ruby.l1_cntrl3.sequencer.pio-slave-port          232                       # Cumulative packet size per connected master and slave (bytes)
system.iobus.pkt_size_system.ruby.l1_cntrl1.sequencer.mem-master-port::total         7630                       # Cumulative packet size per connected master and slave (bytes)
system.iobus.pkt_size_system.ruby.l1_cntrl2.sequencer.mem-master-port::system.ruby.l1_cntrl0.sequencer.pio-slave-port          244                       # Cumulative packet size per connected master and slave (bytes)
system.iobus.pkt_size_system.ruby.l1_cntrl2.sequencer.mem-master-port::system.ruby.l1_cntrl1.sequencer.pio-slave-port          280                       # Cumulative packet size per connected master and slave (bytes)
system.iobus.pkt_size_system.ruby.l1_cntrl2.sequencer.mem-master-port::system.ruby.l1_cntrl2.sequencer.pio-slave-port         7424                       # Cumulative packet size per connected master and slave (bytes)
system.iobus.pkt_size_system.ruby.l1_cntrl2.sequencer.mem-master-port::system.ruby.l1_cntrl3.sequencer.pio-slave-port          360                       # Cumulative packet size per connected master and slave (bytes)
system.iobus.pkt_size_system.ruby.l1_cntrl2.sequencer.mem-master-port::total         8308                       # Cumulative packet size per connected master and slave (bytes)
system.iobus.pkt_size_system.ruby.l1_cntrl3.sequencer.mem-master-port::system.ruby.l1_cntrl0.sequencer.pio-slave-port          416                       # Cumulative packet size per connected master and slave (bytes)
system.iobus.pkt_size_system.ruby.l1_cntrl3.sequencer.mem-master-port::system.ruby.l1_cntrl1.sequencer.pio-slave-port          364                       # Cumulative packet size per connected master and slave (bytes)
system.iobus.pkt_size_system.ruby.l1_cntrl3.sequencer.mem-master-port::system.ruby.l1_cntrl2.sequencer.pio-slave-port          340                       # Cumulative packet size per connected master and slave (bytes)
system.iobus.pkt_size_system.ruby.l1_cntrl3.sequencer.mem-master-port::system.ruby.l1_cntrl3.sequencer.pio-slave-port         8028                       # Cumulative packet size per connected master and slave (bytes)
system.iobus.pkt_size_system.ruby.l1_cntrl3.sequencer.mem-master-port::total         9148                       # Cumulative packet size per connected master and slave (bytes)
system.iobus.pkt_size::total                    33846                       # Cumulative packet size per connected master and slave (bytes)
system.iobus.power_state.pwrStateResidencyTicks::UNDEFINED 100718760440001                       # Cumulative time (in ticks) in various power states
system.iobus.reqLayer19.occupancy             4798108                       # Layer occupancy (ticks)
system.iobus.reqLayer19.utilization               0.0                       # Layer utilization (%)
system.iobus.reqLayer17.occupancy             4655154                       # Layer occupancy (ticks)
system.iobus.reqLayer17.utilization               0.0                       # Layer utilization (%)
system.iobus.reqLayer12.occupancy              698500                       # Layer occupancy (ticks)
system.iobus.reqLayer12.utilization               0.0                       # Layer utilization (%)
system.iobus.reqLayer18.occupancy             4658195                       # Layer occupancy (ticks)
system.iobus.reqLayer18.utilization               0.0                       # Layer utilization (%)
system.iobus.respLayer9.occupancy             3566999                       # Layer occupancy (ticks)
system.iobus.respLayer9.utilization               0.0                       # Layer utilization (%)
system.iobus.respLayer5.occupancy             3667000                       # Layer occupancy (ticks)
system.iobus.respLayer5.utilization               0.0                       # Layer utilization (%)
system.iobus.respLayer7.occupancy             3221000                       # Layer occupancy (ticks)
system.iobus.respLayer7.utilization               0.0                       # Layer utilization (%)
system.iobus.respLayer0.occupancy              201500                       # Layer occupancy (ticks)
system.iobus.respLayer0.utilization               0.0                       # Layer utilization (%)
system.iobus.respLayer3.occupancy             3188000                       # Layer occupancy (ticks)
system.iobus.respLayer3.utilization               0.0                       # Layer utilization (%)
system.iobus.reqLayer20.occupancy             4969140                       # Layer occupancy (ticks)
system.iobus.reqLayer20.utilization               0.0                       # Layer utilization (%)

---------- End Simulation Statistics   ----------
