
---------- Begin Simulation Statistics ----------
final_tick                               98730345013501                       # Number of ticks from beginning of simulation (restored from checkpoints and never reset)
host_inst_rate                                 592926                       # Simulator instruction rate (inst/s)
host_mem_usage                                1532588                       # Number of bytes of host memory used
host_op_rate                                   640910                       # Simulator op (including micro ops) rate (op/s)
host_seconds                                  9965.62                       # Real time elapsed on the host
host_tick_rate                              108460289                       # Simulator tick rate (ticks/s)
sim_freq                                 1000000000000                       # Frequency of simulated ticks
sim_insts                                  5908874076                       # Number of instructions simulated
sim_ops                                    6387069666                       # Number of ops (including micro ops) simulated
sim_seconds                                  1.080875                       # Number of seconds simulated
sim_ticks                                1080874542001                       # Number of ticks simulated
system.cpu0.committedInsts                          0                       # Number of instructions committed
system.cpu0.dtb.rdAccesses                          0                       # TLB accesses on read requests
system.cpu0.dtb.rdMisses                            0                       # TLB misses on read requests
system.cpu0.dtb.wrAccesses                          0                       # TLB accesses on write requests
system.cpu0.dtb.wrMisses                            0                       # TLB misses on write requests
system.cpu0.itb.rdAccesses                          0                       # TLB accesses on read requests
system.cpu0.itb.rdMisses                            0                       # TLB misses on read requests
system.cpu0.itb.wrAccesses                          0                       # TLB accesses on write requests
system.cpu0.itb.wrMisses                            0                       # TLB misses on write requests
system.cpu0.kern.inst.arm                           0                       # number of arm instructions executed
system.cpu0.kern.inst.quiesce                       0                       # number of quiesce instructions executed
system.cpu0.numCoalescedMMIO                        0                       # number of coalesced memory mapped IO requests
system.cpu0.numCycles                               0                       # number of cpu cycles simulated
system.cpu0.numExitSignal                           0                       # exits due to signal delivery
system.cpu0.numHalt                                 0                       # number of VM exits due to wait for interrupt instructions
system.cpu0.numHypercalls                           0                       # number of hypercalls
system.cpu0.numIO                                   0                       # number of VM exits due to legacy IO
system.cpu0.numInterrupts                           0                       # number of interrupts delivered
system.cpu0.numMMIO                                 0                       # number of VM exits due to memory mapped IO
system.cpu0.numVMExits                              0                       # total number of KVM exits
system.cpu0.numVMHalfEntries                        0                       # number of KVM entries to finalize pending operations
system.cpu0.numWorkItemsCompleted                   0                       # number of work items this cpu completed
system.cpu0.numWorkItemsStarted                     0                       # number of work items this cpu started
system.cpu1.committedInsts                          0                       # Number of instructions committed
system.cpu1.dtb.rdAccesses                          0                       # TLB accesses on read requests
system.cpu1.dtb.rdMisses                            0                       # TLB misses on read requests
system.cpu1.dtb.wrAccesses                          0                       # TLB accesses on write requests
system.cpu1.dtb.wrMisses                            0                       # TLB misses on write requests
system.cpu1.itb.rdAccesses                          0                       # TLB accesses on read requests
system.cpu1.itb.rdMisses                            0                       # TLB misses on read requests
system.cpu1.itb.wrAccesses                          0                       # TLB accesses on write requests
system.cpu1.itb.wrMisses                            0                       # TLB misses on write requests
system.cpu1.kern.inst.arm                           0                       # number of arm instructions executed
system.cpu1.kern.inst.quiesce                       0                       # number of quiesce instructions executed
system.cpu1.numCoalescedMMIO                        0                       # number of coalesced memory mapped IO requests
system.cpu1.numCycles                               0                       # number of cpu cycles simulated
system.cpu1.numExitSignal                           0                       # exits due to signal delivery
system.cpu1.numHalt                                 0                       # number of VM exits due to wait for interrupt instructions
system.cpu1.numHypercalls                           0                       # number of hypercalls
system.cpu1.numIO                                   0                       # number of VM exits due to legacy IO
system.cpu1.numInterrupts                           0                       # number of interrupts delivered
system.cpu1.numMMIO                                 0                       # number of VM exits due to memory mapped IO
system.cpu1.numVMExits                              0                       # total number of KVM exits
system.cpu1.numVMHalfEntries                        0                       # number of KVM entries to finalize pending operations
system.cpu1.numWorkItemsCompleted                   0                       # number of work items this cpu completed
system.cpu1.numWorkItemsStarted                     0                       # number of work items this cpu started
system.cpu2.committedInsts                          0                       # Number of instructions committed
system.cpu2.dtb.rdAccesses                          0                       # TLB accesses on read requests
system.cpu2.dtb.rdMisses                            0                       # TLB misses on read requests
system.cpu2.dtb.wrAccesses                          0                       # TLB accesses on write requests
system.cpu2.dtb.wrMisses                            0                       # TLB misses on write requests
system.cpu2.itb.rdAccesses                          0                       # TLB accesses on read requests
system.cpu2.itb.rdMisses                            0                       # TLB misses on read requests
system.cpu2.itb.wrAccesses                          0                       # TLB accesses on write requests
system.cpu2.itb.wrMisses                            0                       # TLB misses on write requests
system.cpu2.kern.inst.arm                           0                       # number of arm instructions executed
system.cpu2.kern.inst.quiesce                       0                       # number of quiesce instructions executed
system.cpu2.numCoalescedMMIO                        0                       # number of coalesced memory mapped IO requests
system.cpu2.numCycles                               0                       # number of cpu cycles simulated
system.cpu2.numExitSignal                           0                       # exits due to signal delivery
system.cpu2.numHalt                                 0                       # number of VM exits due to wait for interrupt instructions
system.cpu2.numHypercalls                           0                       # number of hypercalls
system.cpu2.numIO                                   0                       # number of VM exits due to legacy IO
system.cpu2.numInterrupts                           0                       # number of interrupts delivered
system.cpu2.numMMIO                                 0                       # number of VM exits due to memory mapped IO
system.cpu2.numVMExits                              0                       # total number of KVM exits
system.cpu2.numVMHalfEntries                        0                       # number of KVM entries to finalize pending operations
system.cpu2.numWorkItemsCompleted                   0                       # number of work items this cpu completed
system.cpu2.numWorkItemsStarted                     0                       # number of work items this cpu started
system.cpu3.committedInsts                          0                       # Number of instructions committed
system.cpu3.dtb.rdAccesses                          0                       # TLB accesses on read requests
system.cpu3.dtb.rdMisses                            0                       # TLB misses on read requests
system.cpu3.dtb.wrAccesses                          0                       # TLB accesses on write requests
system.cpu3.dtb.wrMisses                            0                       # TLB misses on write requests
system.cpu3.itb.rdAccesses                          0                       # TLB accesses on read requests
system.cpu3.itb.rdMisses                            0                       # TLB misses on read requests
system.cpu3.itb.wrAccesses                          0                       # TLB accesses on write requests
system.cpu3.itb.wrMisses                            0                       # TLB misses on write requests
system.cpu3.kern.inst.arm                           0                       # number of arm instructions executed
system.cpu3.kern.inst.quiesce                       0                       # number of quiesce instructions executed
system.cpu3.numCoalescedMMIO                        0                       # number of coalesced memory mapped IO requests
system.cpu3.numCycles                               0                       # number of cpu cycles simulated
system.cpu3.numExitSignal                           0                       # exits due to signal delivery
system.cpu3.numHalt                                 0                       # number of VM exits due to wait for interrupt instructions
system.cpu3.numHypercalls                           0                       # number of hypercalls
system.cpu3.numIO                                   0                       # number of VM exits due to legacy IO
system.cpu3.numInterrupts                           0                       # number of interrupts delivered
system.cpu3.numMMIO                                 0                       # number of VM exits due to memory mapped IO
system.cpu3.numVMExits                              0                       # total number of KVM exits
system.cpu3.numVMHalfEntries                        0                       # number of KVM entries to finalize pending operations
system.cpu3.numWorkItemsCompleted                   0                       # number of work items this cpu completed
system.cpu3.numWorkItemsStarted                     0                       # number of work items this cpu started
system.pc.south_bridge.ide.disks.dma_read_bytes            0                       # Number of bytes transfered via DMA reads (not PRD).
system.pc.south_bridge.ide.disks.dma_read_full_pages            0                       # Number of full page size DMA reads (not PRD).
system.pc.south_bridge.ide.disks.dma_read_txs            0                       # Number of DMA read transactions (not PRD).
system.pc.south_bridge.ide.disks.dma_write_bytes       114688                       # Number of bytes transfered via DMA writes.
system.pc.south_bridge.ide.disks.dma_write_full_pages           28                       # Number of full page size DMA writes.
system.pc.south_bridge.ide.disks.dma_write_txs           28                       # Number of DMA write transactions.
system.ruby.DMA_Controller.I.allocI_load |           1    100.00%    100.00% |           0      0.00%    100.00%
system.ruby.DMA_Controller.I.allocI_load::total            1                      
system.ruby.DMA_Controller.I.allocI_store |        1792    100.00%    100.00% |           0      0.00%    100.00%
system.ruby.DMA_Controller.I.allocI_store::total         1792                      
system.ruby.DMA_Controller.I.deallocfwdfrom_in |         769    100.00%    100.00% |           0      0.00%    100.00%
system.ruby.DMA_Controller.I.deallocfwdfrom_in::total          769                      
system.ruby.DMA_Controller.M.MloadMEvent |           4    100.00%    100.00% |           0      0.00%    100.00%
system.ruby.DMA_Controller.M.MloadMEvent::total            4                      
system.ruby.DMA_Controller.M.allocTBE    |         770    100.00%    100.00% |           0      0.00%    100.00%
system.ruby.DMA_Controller.M.allocTBE::total          770                      
system.ruby.DMA_Controller.M.externalloadMrespfrom_in |           1    100.00%    100.00% |           0      0.00%    100.00%
system.ruby.DMA_Controller.M.externalloadMrespfrom_in::total            1                      
system.ruby.DMA_Controller.M.externalstoreMrespfrom_in |        1792    100.00%    100.00% |           0      0.00%    100.00%
system.ruby.DMA_Controller.M.externalstoreMrespfrom_in::total         1792                      
system.ruby.DMA_Controller.M_evict.Stallmandatory_in |       44741    100.00%    100.00% |           0      0.00%    100.00%
system.ruby.DMA_Controller.M_evict.Stallmandatory_in::total        44741                      
system.ruby.DMA_Controller.MloadMEvent   |           4    100.00%    100.00% |           0      0.00%    100.00%
system.ruby.DMA_Controller.MloadMEvent::total            4                      
system.ruby.DMA_Controller.Stallmandatory_in |       44741    100.00%    100.00% |           0      0.00%    100.00%
system.ruby.DMA_Controller.Stallmandatory_in::total        44741                      
system.ruby.DMA_Controller.allocI_load   |           1    100.00%    100.00% |           0      0.00%    100.00%
system.ruby.DMA_Controller.allocI_load::total            1                      
system.ruby.DMA_Controller.allocI_store  |        1792    100.00%    100.00% |           0      0.00%    100.00%
system.ruby.DMA_Controller.allocI_store::total         1792                      
system.ruby.DMA_Controller.allocTBE      |         770    100.00%    100.00% |           0      0.00%    100.00%
system.ruby.DMA_Controller.allocTBE::total          770                      
system.ruby.DMA_Controller.deallocfwdfrom_in |         769    100.00%    100.00% |           0      0.00%    100.00%
system.ruby.DMA_Controller.deallocfwdfrom_in::total          769                      
system.ruby.DMA_Controller.externalloadMrespfrom_in |           1    100.00%    100.00% |           0      0.00%    100.00%
system.ruby.DMA_Controller.externalloadMrespfrom_in::total            1                      
system.ruby.DMA_Controller.externalstoreMrespfrom_in |        1792    100.00%    100.00% |           0      0.00%    100.00%
system.ruby.DMA_Controller.externalstoreMrespfrom_in::total         1792                      
system.ruby.Directory_Controller.I.allocTBE |     1489769     25.35%     25.35% |     1487594     25.31%     50.66% |     1448079     24.64%     75.29% |     1452223     24.71%    100.00%
system.ruby.Directory_Controller.I.allocTBE::total      5877665                      
system.ruby.Directory_Controller.I.deallocTBE |     1488914     25.35%     25.35% |     1486753     25.31%     50.66% |     1447252     24.64%     75.29% |     1451391     24.71%    100.00%
system.ruby.Directory_Controller.I.deallocTBE::total      5874310                      
system.ruby.Directory_Controller.I_GetML1C1_0.Stallreqto_in |         177     35.98%     35.98% |          71     14.43%     50.41% |         125     25.41%     75.81% |         119     24.19%    100.00%
system.ruby.Directory_Controller.I_GetML1C1_0.Stallreqto_in::total          492                      
system.ruby.Directory_Controller.M.allocTBE |    14346765     24.14%     24.14% |    17142315     28.85%     52.99% |    14639619     24.63%     77.62% |    13299755     22.38%    100.00%
system.ruby.Directory_Controller.M.allocTBE::total     59428454                      
system.ruby.Directory_Controller.M.deallocTBE |    14347620     24.14%     24.14% |    17143156     28.85%     52.99% |    14640446     24.63%     77.62% |    13300587     22.38%    100.00%
system.ruby.Directory_Controller.M.deallocTBE::total     59431809                      
system.ruby.Directory_Controller.M_PutML1C1_0.Stallreqto_in |         112     31.91%     31.91% |          87     24.79%     56.70% |          74     21.08%     77.78% |          78     22.22%    100.00%
system.ruby.Directory_Controller.M_PutML1C1_0.Stallreqto_in::total          351                      
system.ruby.Directory_Controller.Stallreqto_in |         289     34.28%     34.28% |         158     18.74%     53.02% |         199     23.61%     76.63% |         197     23.37%    100.00%
system.ruby.Directory_Controller.Stallreqto_in::total          843                      
system.ruby.Directory_Controller.allocTBE |    15836534     24.25%     24.25% |    18629909     28.53%     52.78% |    16087698     24.63%     77.41% |    14751978     22.59%    100.00%
system.ruby.Directory_Controller.allocTBE::total     65306119                      
system.ruby.Directory_Controller.deallocTBE |    15836534     24.25%     24.25% |    18629909     28.53%     52.78% |    16087698     24.63%     77.41% |    14751978     22.59%    100.00%
system.ruby.Directory_Controller.deallocTBE::total     65306119                      
system.ruby.IFETCH.hit_latency_hist_seqr::bucket_size            1                      
system.ruby.IFETCH.hit_latency_hist_seqr::max_bucket            9                      
system.ruby.IFETCH.hit_latency_hist_seqr::samples   1110654342                      
system.ruby.IFETCH.hit_latency_hist_seqr |  1110654342    100.00%    100.00% |           0      0.00%    100.00% |           0      0.00%    100.00% |           0      0.00%    100.00% |           0      0.00%    100.00% |           0      0.00%    100.00% |           0      0.00%    100.00% |           0      0.00%    100.00% |           0      0.00%    100.00% |           0      0.00%    100.00%
system.ruby.IFETCH.hit_latency_hist_seqr::total   1110654342                      
system.ruby.IFETCH.latency_hist_seqr::bucket_size            1                      
system.ruby.IFETCH.latency_hist_seqr::max_bucket            9                      
system.ruby.IFETCH.latency_hist_seqr::samples   1162589486                      
system.ruby.IFETCH.latency_hist_seqr     |  1162589486    100.00%    100.00% |           0      0.00%    100.00% |           0      0.00%    100.00% |           0      0.00%    100.00% |           0      0.00%    100.00% |           0      0.00%    100.00% |           0      0.00%    100.00% |           0      0.00%    100.00% |           0      0.00%    100.00% |           0      0.00%    100.00%
system.ruby.IFETCH.latency_hist_seqr::total   1162589486                      
system.ruby.IFETCH.miss_latency_hist_seqr::bucket_size            1                      
system.ruby.IFETCH.miss_latency_hist_seqr::max_bucket            9                      
system.ruby.IFETCH.miss_latency_hist_seqr::samples     51935144                      
system.ruby.IFETCH.miss_latency_hist_seqr |    51935144    100.00%    100.00% |           0      0.00%    100.00% |           0      0.00%    100.00% |           0      0.00%    100.00% |           0      0.00%    100.00% |           0      0.00%    100.00% |           0      0.00%    100.00% |           0      0.00%    100.00% |           0      0.00%    100.00% |           0      0.00%    100.00%
system.ruby.IFETCH.miss_latency_hist_seqr::total     51935144                      
system.ruby.L1Cache_Controller.I.allocI_load |    15325631     25.98%     25.98% |    15338231     26.00%     51.97% |    14154869     23.99%     75.96% |    14180610     24.04%    100.00%
system.ruby.L1Cache_Controller.I.allocI_load::total     58999341                      
system.ruby.L1Cache_Controller.I.allocI_store |      122667     28.50%     28.50% |      115104     26.75%     55.25% |      108628     25.24%     80.50% |       83937     19.50%    100.00%
system.ruby.L1Cache_Controller.I.allocI_store::total       430336                      
system.ruby.L1Cache_Controller.I.deallocfwdfrom_in |    15447696     25.99%     25.99% |    15452910     26.00%     52.00% |    14263028     24.00%     76.00% |    14263712     24.00%    100.00%
system.ruby.L1Cache_Controller.I.deallocfwdfrom_in::total     59427346                      
system.ruby.L1Cache_Controller.I_load.Stallfwdfrom_in |     1344534     25.22%     25.22% |     1364529     25.60%     50.82% |     1345689     25.24%     76.07% |     1275803     23.93%    100.00%
system.ruby.L1Cache_Controller.I_load.Stallfwdfrom_in::total      5330555                      
system.ruby.L1Cache_Controller.I_store.Stallfwdfrom_in |           9     25.00%     25.00% |           7     19.44%     44.44% |          11     30.56%     75.00% |           9     25.00%    100.00%
system.ruby.L1Cache_Controller.I_store.Stallfwdfrom_in::total           36                      
system.ruby.L1Cache_Controller.I_x_M_evict.Progress |          82     24.19%     24.19% |         106     31.27%     55.46% |          76     22.42%     77.88% |          75     22.12%    100.00%
system.ruby.L1Cache_Controller.I_x_M_evict.Progress::total          339                      
system.ruby.L1Cache_Controller.I_x_M_evict.Stallmandatory_in |         327     25.17%     25.17% |         405     31.18%     56.35% |         295     22.71%     79.06% |         272     20.94%    100.00%
system.ruby.L1Cache_Controller.I_x_M_evict.Stallmandatory_in::total         1299                      
system.ruby.L1Cache_Controller.M.MloadMEvent |   311432267     23.11%     23.11% |   313675715     23.28%     46.39% |   359750727     26.70%     73.09% |   362581471     26.91%    100.00%
system.ruby.L1Cache_Controller.M.MloadMEvent::total   1347440180                      
system.ruby.L1Cache_Controller.M.MstoreMEvent |    16977465     24.01%     24.01% |    16981680     24.01%     48.02% |    18992292     26.86%     74.87% |    17769331     25.13%    100.00%
system.ruby.L1Cache_Controller.M.MstoreMEvent::total     70720768                      
system.ruby.L1Cache_Controller.M.allocTBE |    15447696     25.99%     25.99% |    15452910     26.00%     52.00% |    14263028     24.00%     76.00% |    14263712     24.00%    100.00%
system.ruby.L1Cache_Controller.M.allocTBE::total     59427346                      
system.ruby.L1Cache_Controller.M.externalloadMrespfrom_in |    15325631     25.98%     25.98% |    15338231     26.00%     51.97% |    14154869     23.99%     75.96% |    14180610     24.04%    100.00%
system.ruby.L1Cache_Controller.M.externalloadMrespfrom_in::total     58999341                      
system.ruby.L1Cache_Controller.M.externalstoreMrespfrom_in |      122667     28.51%     28.51% |      115104     26.75%     55.25% |      108628     25.24%     80.50% |       83936     19.50%    100.00%
system.ruby.L1Cache_Controller.M.externalstoreMrespfrom_in::total       430335                      
system.ruby.L1Cache_Controller.M_evict.Stallmandatory_in |     1064356     26.10%     26.10% |     1080997     26.51%     52.60% |      942560     23.11%     75.72% |      990380     24.28%    100.00%
system.ruby.L1Cache_Controller.M_evict.Stallmandatory_in::total      4078293                      
system.ruby.L1Cache_Controller.MloadMEvent |   311432267     23.11%     23.11% |   313675715     23.28%     46.39% |   359750727     26.70%     73.09% |   362581471     26.91%    100.00%
system.ruby.L1Cache_Controller.MloadMEvent::total   1347440180                      
system.ruby.L1Cache_Controller.MstoreMEvent |    16977465     24.01%     24.01% |    16981680     24.01%     48.02% |    18992292     26.86%     74.87% |    17769331     25.13%    100.00%
system.ruby.L1Cache_Controller.MstoreMEvent::total     70720768                      
system.ruby.L1Cache_Controller.Progress  |          82     24.19%     24.19% |         106     31.27%     55.46% |          76     22.42%     77.88% |          75     22.12%    100.00%
system.ruby.L1Cache_Controller.Progress::total          339                      
system.ruby.L1Cache_Controller.Stallfwdfrom_in |     1344543     25.22%     25.22% |     1364536     25.60%     50.82% |     1345700     25.24%     76.07% |     1275812     23.93%    100.00%
system.ruby.L1Cache_Controller.Stallfwdfrom_in::total      5330591                      
system.ruby.L1Cache_Controller.Stallmandatory_in |     1064683     26.10%     26.10% |     1081402     26.51%     52.61% |      942855     23.11%     75.72% |      990652     24.28%    100.00%
system.ruby.L1Cache_Controller.Stallmandatory_in::total      4079592                      
system.ruby.L1Cache_Controller.allocI_load |    15325631     25.98%     25.98% |    15338231     26.00%     51.97% |    14154869     23.99%     75.96% |    14180610     24.04%    100.00%
system.ruby.L1Cache_Controller.allocI_load::total     58999341                      
system.ruby.L1Cache_Controller.allocI_store |      122667     28.50%     28.50% |      115104     26.75%     55.25% |      108628     25.24%     80.50% |       83937     19.50%    100.00%
system.ruby.L1Cache_Controller.allocI_store::total       430336                      
system.ruby.L1Cache_Controller.allocTBE  |    15447696     25.99%     25.99% |    15452910     26.00%     52.00% |    14263028     24.00%     76.00% |    14263712     24.00%    100.00%
system.ruby.L1Cache_Controller.allocTBE::total     59427346                      
system.ruby.L1Cache_Controller.deallocfwdfrom_in |    15447696     25.99%     25.99% |    15452910     26.00%     52.00% |    14263028     24.00%     76.00% |    14263712     24.00%    100.00%
system.ruby.L1Cache_Controller.deallocfwdfrom_in::total     59427346                      
system.ruby.L1Cache_Controller.externalloadMrespfrom_in |    15325631     25.98%     25.98% |    15338231     26.00%     51.97% |    14154869     23.99%     75.96% |    14180610     24.04%    100.00%
system.ruby.L1Cache_Controller.externalloadMrespfrom_in::total     58999341                      
system.ruby.L1Cache_Controller.externalstoreMrespfrom_in |      122667     28.51%     28.51% |      115104     26.75%     55.25% |      108628     25.24%     80.50% |       83936     19.50%    100.00%
system.ruby.L1Cache_Controller.externalstoreMrespfrom_in::total       430335                      
system.ruby.LD.hit_latency_hist_seqr::bucket_size            1                      
system.ruby.LD.hit_latency_hist_seqr::max_bucket            9                      
system.ruby.LD.hit_latency_hist_seqr::samples    236785838                      
system.ruby.LD.hit_latency_hist_seqr     |   236785838    100.00%    100.00% |           0      0.00%    100.00% |           0      0.00%    100.00% |           0      0.00%    100.00% |           0      0.00%    100.00% |           0      0.00%    100.00% |           0      0.00%    100.00% |           0      0.00%    100.00% |           0      0.00%    100.00% |           0      0.00%    100.00%
system.ruby.LD.hit_latency_hist_seqr::total    236785838                      
system.ruby.LD.latency_hist_seqr::bucket_size            1                      
system.ruby.LD.latency_hist_seqr::max_bucket            9                      
system.ruby.LD.latency_hist_seqr::samples    243850035                      
system.ruby.LD.latency_hist_seqr         |   243850035    100.00%    100.00% |           0      0.00%    100.00% |           0      0.00%    100.00% |           0      0.00%    100.00% |           0      0.00%    100.00% |           0      0.00%    100.00% |           0      0.00%    100.00% |           0      0.00%    100.00% |           0      0.00%    100.00% |           0      0.00%    100.00%
system.ruby.LD.latency_hist_seqr::total     243850035                      
system.ruby.LD.miss_latency_hist_seqr::bucket_size            1                      
system.ruby.LD.miss_latency_hist_seqr::max_bucket            9                      
system.ruby.LD.miss_latency_hist_seqr::samples      7064197                      
system.ruby.LD.miss_latency_hist_seqr    |     7064197    100.00%    100.00% |           0      0.00%    100.00% |           0      0.00%    100.00% |           0      0.00%    100.00% |           0      0.00%    100.00% |           0      0.00%    100.00% |           0      0.00%    100.00% |           0      0.00%    100.00% |           0      0.00%    100.00% |           0      0.00%    100.00%
system.ruby.LD.miss_latency_hist_seqr::total      7064197                      
system.ruby.Locked_RMW_Read.hit_latency_hist_seqr::bucket_size            1                      
system.ruby.Locked_RMW_Read.hit_latency_hist_seqr::max_bucket            9                      
system.ruby.Locked_RMW_Read.hit_latency_hist_seqr::samples        55252                      
system.ruby.Locked_RMW_Read.hit_latency_hist_seqr |       55252    100.00%    100.00% |           0      0.00%    100.00% |           0      0.00%    100.00% |           0      0.00%    100.00% |           0      0.00%    100.00% |           0      0.00%    100.00% |           0      0.00%    100.00% |           0      0.00%    100.00% |           0      0.00%    100.00% |           0      0.00%    100.00%
system.ruby.Locked_RMW_Read.hit_latency_hist_seqr::total        55252                      
system.ruby.Locked_RMW_Read.latency_hist_seqr::bucket_size            1                      
system.ruby.Locked_RMW_Read.latency_hist_seqr::max_bucket            9                      
system.ruby.Locked_RMW_Read.latency_hist_seqr::samples        69736                      
system.ruby.Locked_RMW_Read.latency_hist_seqr |       69736    100.00%    100.00% |           0      0.00%    100.00% |           0      0.00%    100.00% |           0      0.00%    100.00% |           0      0.00%    100.00% |           0      0.00%    100.00% |           0      0.00%    100.00% |           0      0.00%    100.00% |           0      0.00%    100.00% |           0      0.00%    100.00%
system.ruby.Locked_RMW_Read.latency_hist_seqr::total        69736                      
system.ruby.Locked_RMW_Read.miss_latency_hist_seqr::bucket_size            1                      
system.ruby.Locked_RMW_Read.miss_latency_hist_seqr::max_bucket            9                      
system.ruby.Locked_RMW_Read.miss_latency_hist_seqr::samples        14484                      
system.ruby.Locked_RMW_Read.miss_latency_hist_seqr |       14484    100.00%    100.00% |           0      0.00%    100.00% |           0      0.00%    100.00% |           0      0.00%    100.00% |           0      0.00%    100.00% |           0      0.00%    100.00% |           0      0.00%    100.00% |           0      0.00%    100.00% |           0      0.00%    100.00% |           0      0.00%    100.00%
system.ruby.Locked_RMW_Read.miss_latency_hist_seqr::total        14484                      
system.ruby.Locked_RMW_Write.hit_latency_hist_seqr::bucket_size            1                      
system.ruby.Locked_RMW_Write.hit_latency_hist_seqr::max_bucket            9                      
system.ruby.Locked_RMW_Write.hit_latency_hist_seqr::samples        69736                      
system.ruby.Locked_RMW_Write.hit_latency_hist_seqr |       69736    100.00%    100.00% |           0      0.00%    100.00% |           0      0.00%    100.00% |           0      0.00%    100.00% |           0      0.00%    100.00% |           0      0.00%    100.00% |           0      0.00%    100.00% |           0      0.00%    100.00% |           0      0.00%    100.00% |           0      0.00%    100.00%
system.ruby.Locked_RMW_Write.hit_latency_hist_seqr::total        69736                      
system.ruby.Locked_RMW_Write.latency_hist_seqr::bucket_size            1                      
system.ruby.Locked_RMW_Write.latency_hist_seqr::max_bucket            9                      
system.ruby.Locked_RMW_Write.latency_hist_seqr::samples        69736                      
system.ruby.Locked_RMW_Write.latency_hist_seqr |       69736    100.00%    100.00% |           0      0.00%    100.00% |           0      0.00%    100.00% |           0      0.00%    100.00% |           0      0.00%    100.00% |           0      0.00%    100.00% |           0      0.00%    100.00% |           0      0.00%    100.00% |           0      0.00%    100.00% |           0      0.00%    100.00%
system.ruby.Locked_RMW_Write.latency_hist_seqr::total        69736                      
system.ruby.RMW_Read.hit_latency_hist_seqr::bucket_size            1                      
system.ruby.RMW_Read.hit_latency_hist_seqr::max_bucket            9                      
system.ruby.RMW_Read.hit_latency_hist_seqr::samples      2959209                      
system.ruby.RMW_Read.hit_latency_hist_seqr |     2959209    100.00%    100.00% |           0      0.00%    100.00% |           0      0.00%    100.00% |           0      0.00%    100.00% |           0      0.00%    100.00% |           0      0.00%    100.00% |           0      0.00%    100.00% |           0      0.00%    100.00% |           0      0.00%    100.00% |           0      0.00%    100.00%
system.ruby.RMW_Read.hit_latency_hist_seqr::total      2959209                      
system.ruby.RMW_Read.latency_hist_seqr::bucket_size            1                      
system.ruby.RMW_Read.latency_hist_seqr::max_bucket            9                      
system.ruby.RMW_Read.latency_hist_seqr::samples      2998455                      
system.ruby.RMW_Read.latency_hist_seqr   |     2998455    100.00%    100.00% |           0      0.00%    100.00% |           0      0.00%    100.00% |           0      0.00%    100.00% |           0      0.00%    100.00% |           0      0.00%    100.00% |           0      0.00%    100.00% |           0      0.00%    100.00% |           0      0.00%    100.00% |           0      0.00%    100.00%
system.ruby.RMW_Read.latency_hist_seqr::total      2998455                      
system.ruby.RMW_Read.miss_latency_hist_seqr::bucket_size            1                      
system.ruby.RMW_Read.miss_latency_hist_seqr::max_bucket            9                      
system.ruby.RMW_Read.miss_latency_hist_seqr::samples        39246                      
system.ruby.RMW_Read.miss_latency_hist_seqr |       39246    100.00%    100.00% |           0      0.00%    100.00% |           0      0.00%    100.00% |           0      0.00%    100.00% |           0      0.00%    100.00% |           0      0.00%    100.00% |           0      0.00%    100.00% |           0      0.00%    100.00% |           0      0.00%    100.00% |           0      0.00%    100.00%
system.ruby.RMW_Read.miss_latency_hist_seqr::total        39246                      
system.ruby.ST.hit_latency_hist_seqr::bucket_size            1                      
system.ruby.ST.hit_latency_hist_seqr::max_bucket            9                      
system.ruby.ST.hit_latency_hist_seqr::samples     67636571                      
system.ruby.ST.hit_latency_hist_seqr     |    67636571    100.00%    100.00% |           0      0.00%    100.00% |           0      0.00%    100.00% |           0      0.00%    100.00% |           0      0.00%    100.00% |           0      0.00%    100.00% |           0      0.00%    100.00% |           0      0.00%    100.00% |           0      0.00%    100.00% |           0      0.00%    100.00%
system.ruby.ST.hit_latency_hist_seqr::total     67636571                      
system.ruby.ST.latency_hist_seqr::bucket_size            1                      
system.ruby.ST.latency_hist_seqr::max_bucket            9                      
system.ruby.ST.latency_hist_seqr::samples     68013176                      
system.ruby.ST.latency_hist_seqr         |    68013176    100.00%    100.00% |           0      0.00%    100.00% |           0      0.00%    100.00% |           0      0.00%    100.00% |           0      0.00%    100.00% |           0      0.00%    100.00% |           0      0.00%    100.00% |           0      0.00%    100.00% |           0      0.00%    100.00% |           0      0.00%    100.00%
system.ruby.ST.latency_hist_seqr::total      68013176                      
system.ruby.ST.miss_latency_hist_seqr::bucket_size            1                      
system.ruby.ST.miss_latency_hist_seqr::max_bucket            9                      
system.ruby.ST.miss_latency_hist_seqr::samples       376605                      
system.ruby.ST.miss_latency_hist_seqr    |      376605    100.00%    100.00% |           0      0.00%    100.00% |           0      0.00%    100.00% |           0      0.00%    100.00% |           0      0.00%    100.00% |           0      0.00%    100.00% |           0      0.00%    100.00% |           0      0.00%    100.00% |           0      0.00%    100.00% |           0      0.00%    100.00%
system.ruby.ST.miss_latency_hist_seqr::total       376605                      
system.ruby.dir_cntrl0.fwdFrom.avg_buf_msgs     0.006637                       # Average number of messages in buffer
system.ruby.dir_cntrl0.fwdFrom.avg_stall_time   499.991484                       # Average number of cycles messages are stalled in this MB
system.ruby.dir_cntrl0.reqTo.avg_buf_msgs     0.007327                       # Average number of messages in buffer
system.ruby.dir_cntrl0.reqTo.avg_stall_time 14011.175244                       # Average number of cycles messages are stalled in this MB
system.ruby.dir_cntrl0.requestToMemory.avg_buf_msgs     0.006890                       # Average number of messages in buffer
system.ruby.dir_cntrl0.requestToMemory.avg_stall_time  2499.998868                       # Average number of cycles messages are stalled in this MB
system.ruby.dir_cntrl0.respFrom.avg_buf_msgs     0.000689                       # Average number of messages in buffer
system.ruby.dir_cntrl0.respFrom.avg_stall_time   500.000060                       # Average number of cycles messages are stalled in this MB
system.ruby.dir_cntrl0.responseFromMemory.avg_buf_msgs     0.001379                       # Average number of messages in buffer
system.ruby.dir_cntrl0.responseFromMemory.avg_stall_time   499.999734                       # Average number of cycles messages are stalled in this MB
system.ruby.dir_cntrl1.fwdFrom.avg_buf_msgs     0.007930                       # Average number of messages in buffer
system.ruby.dir_cntrl1.fwdFrom.avg_stall_time   499.996522                       # Average number of cycles messages are stalled in this MB
system.ruby.dir_cntrl1.reqTo.avg_buf_msgs     0.008619                       # Average number of messages in buffer
system.ruby.dir_cntrl1.reqTo.avg_stall_time 14013.296549                       # Average number of cycles messages are stalled in this MB
system.ruby.dir_cntrl1.requestToMemory.avg_buf_msgs     0.006879                       # Average number of messages in buffer
system.ruby.dir_cntrl1.requestToMemory.avg_stall_time  2499.999960                       # Average number of cycles messages are stalled in this MB
system.ruby.dir_cntrl1.respFrom.avg_buf_msgs     0.000688                       # Average number of messages in buffer
system.ruby.dir_cntrl1.respFrom.avg_stall_time   500.000277                       # Average number of cycles messages are stalled in this MB
system.ruby.dir_cntrl1.responseFromMemory.avg_buf_msgs     0.001377                       # Average number of messages in buffer
system.ruby.dir_cntrl1.responseFromMemory.avg_stall_time   499.999953                       # Average number of cycles messages are stalled in this MB
system.ruby.dir_cntrl2.fwdFrom.avg_buf_msgs     0.006772                       # Average number of messages in buffer
system.ruby.dir_cntrl2.fwdFrom.avg_stall_time   499.988467                       # Average number of cycles messages are stalled in this MB
system.ruby.dir_cntrl2.reqTo.avg_buf_msgs     0.007443                       # Average number of messages in buffer
system.ruby.dir_cntrl2.reqTo.avg_stall_time 14059.613590                       # Average number of cycles messages are stalled in this MB
system.ruby.dir_cntrl2.requestToMemory.avg_buf_msgs     0.006697                       # Average number of messages in buffer
system.ruby.dir_cntrl2.requestToMemory.avg_stall_time  2499.997766                       # Average number of cycles messages are stalled in this MB
system.ruby.dir_cntrl2.respFrom.avg_buf_msgs     0.000670                       # Average number of messages in buffer
system.ruby.dir_cntrl2.respFrom.avg_stall_time   500.000192                       # Average number of cycles messages are stalled in this MB
system.ruby.dir_cntrl2.responseFromMemory.avg_buf_msgs     0.001341                       # Average number of messages in buffer
system.ruby.dir_cntrl2.responseFromMemory.avg_stall_time   499.999514                       # Average number of cycles messages are stalled in this MB
system.ruby.dir_cntrl3.fwdFrom.avg_buf_msgs     0.006152                       # Average number of messages in buffer
system.ruby.dir_cntrl3.fwdFrom.avg_stall_time   499.992250                       # Average number of cycles messages are stalled in this MB
system.ruby.dir_cntrl3.reqTo.avg_buf_msgs     0.006825                       # Average number of messages in buffer
system.ruby.dir_cntrl3.reqTo.avg_stall_time 14060.271950                       # Average number of cycles messages are stalled in this MB
system.ruby.dir_cntrl3.requestToMemory.avg_buf_msgs     0.006716                       # Average number of messages in buffer
system.ruby.dir_cntrl3.requestToMemory.avg_stall_time  2499.999960                       # Average number of cycles messages are stalled in this MB
system.ruby.dir_cntrl3.respFrom.avg_buf_msgs     0.000672                       # Average number of messages in buffer
system.ruby.dir_cntrl3.respFrom.avg_stall_time   500.000227                       # Average number of cycles messages are stalled in this MB
system.ruby.dir_cntrl3.responseFromMemory.avg_buf_msgs     0.001345                       # Average number of messages in buffer
system.ruby.dir_cntrl3.responseFromMemory.avg_stall_time   499.999953                       # Average number of cycles messages are stalled in this MB
system.ruby.dma_cntrl0.cache.demand_accesses            0                       # Number of cache demand accesses
system.ruby.dma_cntrl0.cache.demand_hits            0                       # Number of cache demand hits
system.ruby.dma_cntrl0.cache.demand_misses            0                       # Number of cache demand misses
system.ruby.dma_cntrl0.fully_busy_cycles         7930                       # cycles for which number of transistions == max transitions
system.ruby.dma_cntrl0.fwdFrom.avg_buf_msgs     0.000000                       # Average number of messages in buffer
system.ruby.dma_cntrl0.fwdFrom.avg_stall_time  6614.933643                       # Average number of cycles messages are stalled in this MB
system.ruby.dma_cntrl0.mandatoryQueue.avg_buf_msgs     0.000245                       # Average number of messages in buffer
system.ruby.dma_cntrl0.mandatoryQueue.avg_stall_time 339895.866547                       # Average number of cycles messages are stalled in this MB
system.ruby.dma_cntrl0.reqTo.avg_buf_msgs     0.000875                       # Average number of messages in buffer
system.ruby.dma_cntrl0.reqTo.avg_stall_time 293089.986730                       # Average number of cycles messages are stalled in this MB
system.ruby.dma_cntrl0.respFrom.avg_buf_msgs     0.000001                       # Average number of messages in buffer
system.ruby.dma_cntrl0.respFrom.avg_stall_time  6615.030992                       # Average number of cycles messages are stalled in this MB
system.ruby.hit_latency_hist_seqr::bucket_size            1                      
system.ruby.hit_latency_hist_seqr::max_bucket            9                      
system.ruby.hit_latency_hist_seqr::samples   1418160948                      
system.ruby.hit_latency_hist_seqr        |  1418160948    100.00%    100.00% |           0      0.00%    100.00% |           0      0.00%    100.00% |           0      0.00%    100.00% |           0      0.00%    100.00% |           0      0.00%    100.00% |           0      0.00%    100.00% |           0      0.00%    100.00% |           0      0.00%    100.00% |           0      0.00%    100.00%
system.ruby.hit_latency_hist_seqr::total   1418160948                      
system.ruby.io_controller.cache.demand_accesses            0                       # Number of cache demand accesses
system.ruby.io_controller.cache.demand_hits            0                       # Number of cache demand hits
system.ruby.io_controller.cache.demand_misses            0                       # Number of cache demand misses
system.ruby.l1_cntrl0.cache.demand_accesses            0                       # Number of cache demand accesses
system.ruby.l1_cntrl0.cache.demand_hits             0                       # Number of cache demand hits
system.ruby.l1_cntrl0.cache.demand_misses            0                       # Number of cache demand misses
system.ruby.l1_cntrl0.fully_busy_cycles           730                       # cycles for which number of transistions == max transitions
system.ruby.l1_cntrl0.fwdFrom.avg_buf_msgs     2.979882                       # Average number of messages in buffer
system.ruby.l1_cntrl0.fwdFrom.avg_stall_time 14774.883064                       # Average number of cycles messages are stalled in this MB
system.ruby.l1_cntrl0.mandatoryQueue.avg_buf_msgs     0.198729                       # Average number of messages in buffer
system.ruby.l1_cntrl0.mandatoryQueue.avg_stall_time  2675.351419                       # Average number of cycles messages are stalled in this MB
system.ruby.l1_cntrl0.reqTo.avg_buf_msgs     0.007826                       # Average number of messages in buffer
system.ruby.l1_cntrl0.reqTo.avg_stall_time   499.956905                       # Average number of cycles messages are stalled in this MB
system.ruby.l1_cntrl0.respFrom.avg_buf_msgs     0.007146                       # Average number of messages in buffer
system.ruby.l1_cntrl0.respFrom.avg_stall_time 14484.073535                       # Average number of cycles messages are stalled in this MB
system.ruby.l1_cntrl0.respTo.avg_buf_msgs     0.006467                       # Average number of messages in buffer
system.ruby.l1_cntrl0.respTo.avg_stall_time   499.976394                       # Average number of cycles messages are stalled in this MB
system.ruby.l1_cntrl1.cache.demand_accesses            0                       # Number of cache demand accesses
system.ruby.l1_cntrl1.cache.demand_hits             0                       # Number of cache demand hits
system.ruby.l1_cntrl1.cache.demand_misses            0                       # Number of cache demand misses
system.ruby.l1_cntrl1.fully_busy_cycles           463                       # cycles for which number of transistions == max transitions
system.ruby.l1_cntrl1.fwdFrom.avg_buf_msgs     0.993650                       # Average number of messages in buffer
system.ruby.l1_cntrl1.fwdFrom.avg_stall_time 14739.000667                       # Average number of cycles messages are stalled in this MB
system.ruby.l1_cntrl1.mandatoryQueue.avg_buf_msgs     0.200687                       # Average number of messages in buffer
system.ruby.l1_cntrl1.mandatoryQueue.avg_stall_time  2724.152740                       # Average number of cycles messages are stalled in this MB
system.ruby.l1_cntrl1.reqTo.avg_buf_msgs     0.007844                       # Average number of messages in buffer
system.ruby.l1_cntrl1.reqTo.avg_stall_time   499.999999                       # Average number of cycles messages are stalled in this MB
system.ruby.l1_cntrl1.respFrom.avg_buf_msgs     0.007149                       # Average number of messages in buffer
system.ruby.l1_cntrl1.respFrom.avg_stall_time 14491.828887                       # Average number of cycles messages are stalled in this MB
system.ruby.l1_cntrl1.respTo.avg_buf_msgs     0.006453                       # Average number of messages in buffer
system.ruby.l1_cntrl1.respTo.avg_stall_time   499.996159                       # Average number of cycles messages are stalled in this MB
system.ruby.l1_cntrl2.cache.demand_accesses            0                       # Number of cache demand accesses
system.ruby.l1_cntrl2.cache.demand_hits             0                       # Number of cache demand hits
system.ruby.l1_cntrl2.cache.demand_misses            0                       # Number of cache demand misses
system.ruby.l1_cntrl2.fully_busy_cycles           656                       # cycles for which number of transistions == max transitions
system.ruby.l1_cntrl2.fwdFrom.avg_buf_msgs     4.650819                       # Average number of messages in buffer
system.ruby.l1_cntrl2.fwdFrom.avg_stall_time 14834.838270                       # Average number of cycles messages are stalled in this MB
system.ruby.l1_cntrl2.mandatoryQueue.avg_buf_msgs     0.222761                       # Average number of messages in buffer
system.ruby.l1_cntrl2.mandatoryQueue.avg_stall_time  2742.163393                       # Average number of cycles messages are stalled in this MB
system.ruby.l1_cntrl2.reqTo.avg_buf_msgs     0.007301                       # Average number of messages in buffer
system.ruby.l1_cntrl2.reqTo.avg_stall_time   499.824108                       # Average number of cycles messages are stalled in this MB
system.ruby.l1_cntrl2.respFrom.avg_buf_msgs     0.006598                       # Average number of messages in buffer
system.ruby.l1_cntrl2.respFrom.avg_stall_time 14472.274809                       # Average number of cycles messages are stalled in this MB
system.ruby.l1_cntrl2.respTo.avg_buf_msgs     0.005896                       # Average number of messages in buffer
system.ruby.l1_cntrl2.respTo.avg_stall_time   499.839878                       # Average number of cycles messages are stalled in this MB
system.ruby.l1_cntrl3.cache.demand_accesses            0                       # Number of cache demand accesses
system.ruby.l1_cntrl3.cache.demand_hits             0                       # Number of cache demand hits
system.ruby.l1_cntrl3.cache.demand_misses            0                       # Number of cache demand misses
system.ruby.l1_cntrl3.fully_busy_cycles           666                       # cycles for which number of transistions == max transitions
system.ruby.l1_cntrl3.fwdFrom.avg_buf_msgs     5.928739                       # Average number of messages in buffer
system.ruby.l1_cntrl3.fwdFrom.avg_stall_time 14785.653755                       # Average number of cycles messages are stalled in this MB
system.ruby.l1_cntrl3.mandatoryQueue.avg_buf_msgs     0.219937                       # Average number of messages in buffer
system.ruby.l1_cntrl3.mandatoryQueue.avg_stall_time  2567.128414                       # Average number of cycles messages are stalled in this MB
system.ruby.l1_cntrl3.reqTo.avg_buf_msgs     0.007238                       # Average number of messages in buffer
system.ruby.l1_cntrl3.reqTo.avg_stall_time   499.999999                       # Average number of cycles messages are stalled in this MB
system.ruby.l1_cntrl3.respFrom.avg_buf_msgs     0.006599                       # Average number of messages in buffer
system.ruby.l1_cntrl3.respFrom.avg_stall_time 14507.881606                       # Average number of cycles messages are stalled in this MB
system.ruby.l1_cntrl3.respTo.avg_buf_msgs     0.005959                       # Average number of messages in buffer
system.ruby.l1_cntrl3.respTo.avg_stall_time   500.002792                       # Average number of cycles messages are stalled in this MB
system.ruby.latency_hist_seqr::bucket_size            1                      
system.ruby.latency_hist_seqr::max_bucket            9                      
system.ruby.latency_hist_seqr::samples     1477590624                      
system.ruby.latency_hist_seqr            |  1477590624    100.00%    100.00% |           0      0.00%    100.00% |           0      0.00%    100.00% |           0      0.00%    100.00% |           0      0.00%    100.00% |           0      0.00%    100.00% |           0      0.00%    100.00% |           0      0.00%    100.00% |           0      0.00%    100.00% |           0      0.00%    100.00%
system.ruby.latency_hist_seqr::total       1477590624                      
system.ruby.miss_latency_hist_seqr::bucket_size            1                      
system.ruby.miss_latency_hist_seqr::max_bucket            9                      
system.ruby.miss_latency_hist_seqr::samples     59429676                      
system.ruby.miss_latency_hist_seqr       |    59429676    100.00%    100.00% |           0      0.00%    100.00% |           0      0.00%    100.00% |           0      0.00%    100.00% |           0      0.00%    100.00% |           0      0.00%    100.00% |           0      0.00%    100.00% |           0      0.00%    100.00% |           0      0.00%    100.00% |           0      0.00%    100.00%
system.ruby.miss_latency_hist_seqr::total     59429676                      
system.ruby.network.average_flit_latency    16.626785                      
system.ruby.network.average_flit_network_latency    15.616510                      
system.ruby.network.average_flit_queueing_latency     1.010275                      
system.ruby.network.average_flit_vnet_latency |   16.031886                       |   15.816638                       |   15.056385                       |         nan                       |         nan                       |         nan                       |         nan                       |         nan                      
system.ruby.network.average_flit_vqueue_latency |    1.000046                       |           1                       |    1.028934                       |         nan                       |         nan                       |         nan                       |         nan                       |         nan                      
system.ruby.network.average_hops             1.090738                      
system.ruby.network.average_packet_latency    26.653855                      
system.ruby.network.average_packet_network_latency    25.643580                      
system.ruby.network.average_packet_queueing_latency     1.010275                      
system.ruby.network.average_packet_vnet_latency |   26.059692                       |   25.837918                       |   25.088053                       |         nan                       |         nan                       |         nan                       |         nan                       |         nan                      
system.ruby.network.average_packet_vqueue_latency |    1.000046                       |           1                       |    1.028934                       |         nan                       |         nan                       |         nan                       |         nan                       |         nan                      
system.ruby.network.avg_link_utilization     1.316547                      
system.ruby.network.avg_vc_load          |    0.346118     26.29%     26.29% |    0.037062      2.82%     29.10% |    0.034366      2.61%     31.72% |    0.034365      2.61%     34.33% |    0.296493     22.52%     56.85% |    0.046610      3.54%     60.39% |    0.034470      2.62%     63.00% |    0.034364      2.61%     65.61% |    0.323569     24.58%     90.19% |    0.053255      4.05%     94.24% |    0.038110      2.89%     97.13% |    0.037765      2.87%    100.00% |           0      0.00%    100.00% |           0      0.00%    100.00% |           0      0.00%    100.00% |           0      0.00%    100.00% |           0      0.00%    100.00% |           0      0.00%    100.00% |           0      0.00%    100.00% |           0      0.00%    100.00% |           0      0.00%    100.00% |           0      0.00%    100.00% |           0      0.00%    100.00% |           0      0.00%    100.00% |           0      0.00%    100.00% |           0      0.00%    100.00% |           0      0.00%    100.00% |           0      0.00%    100.00% |           0      0.00%    100.00% |           0      0.00%    100.00% |           0      0.00%    100.00% |           0      0.00%    100.00%
system.ruby.network.avg_vc_load::total       1.316547                      
system.ruby.network.ext_in_link_utilization    920830213                      
system.ruby.network.ext_out_link_utilization    920830211                      
system.ruby.network.flit_network_latency |  4763992650                       |  4699791574                       |  4916370206                       |           0                       |           0                       |           0                       |           0                       |           0                      
system.ruby.network.flit_queueing_latency |   297170991                       |   297142270                       |   335978535                       |           0                       |           0                       |           0                       |           0                       |           0                      
system.ruby.network.flits_injected       |   297157350     32.27%     32.27% |   297142270     32.27%     64.54% |   326530595     35.46%    100.00% |           0      0.00%    100.00% |           0      0.00%    100.00% |           0      0.00%    100.00% |           0      0.00%    100.00% |           0      0.00%    100.00%
system.ruby.network.flits_injected::total    920830215                      
system.ruby.network.flits_received       |   297157346     32.27%     32.27% |   297142270     32.27%     64.54% |   326530595     35.46%    100.00% |           0      0.00%    100.00% |           0      0.00%    100.00% |           0      0.00%    100.00% |           0      0.00%    100.00% |           0      0.00%    100.00%
system.ruby.network.flits_received::total    920830211                      
system.ruby.network.int_link_utilization   1004384544                      
system.ruby.network.packet_network_latency |  1548765771                       |  1535507495                       |  1638403361                       |           0                       |           0                       |           0                       |           0                       |           0                      
system.ruby.network.packet_queueing_latency |    59434198                       |    59428454                       |    67195707                       |           0                       |           0                       |           0                       |           0                       |           0                      
system.ruby.network.packets_injected     |    59431470     32.27%     32.27% |    59428454     32.27%     64.54% |    65306119     35.46%    100.00% |           0      0.00%    100.00% |           0      0.00%    100.00% |           0      0.00%    100.00% |           0      0.00%    100.00% |           0      0.00%    100.00%
system.ruby.network.packets_injected::total    184166043                      
system.ruby.network.packets_received     |    59431469     32.27%     32.27% |    59428454     32.27%     64.54% |    65306119     35.46%    100.00% |           0      0.00%    100.00% |           0      0.00%    100.00% |           0      0.00%    100.00% |           0      0.00%    100.00% |           0      0.00%    100.00%
system.ruby.network.packets_received::total    184166042                      
system.ruby.network.routers0.buffer_reads    489708177                      
system.ruby.network.routers0.buffer_writes    489708177                      
system.ruby.network.routers0.crossbar_activity    489708177                      
system.ruby.network.routers0.sw_input_arbiter_activity    493538867                      
system.ruby.network.routers0.sw_output_arbiter_activity    489708177                      
system.ruby.network.routers1.buffer_reads    506219297                      
system.ruby.network.routers1.buffer_writes    506219297                      
system.ruby.network.routers1.crossbar_activity    506219297                      
system.ruby.network.routers1.sw_input_arbiter_activity    510435594                      
system.ruby.network.routers1.sw_output_arbiter_activity    506219297                      
system.ruby.network.routers2.buffer_reads    466725770                      
system.ruby.network.routers2.buffer_writes    466725770                      
system.ruby.network.routers2.crossbar_activity    466725770                      
system.ruby.network.routers2.sw_input_arbiter_activity    470124020                      
system.ruby.network.routers2.sw_output_arbiter_activity    466725770                      
system.ruby.network.routers3.buffer_reads    462561512                      
system.ruby.network.routers3.buffer_writes    462561512                      
system.ruby.network.routers3.crossbar_activity    462561512                      
system.ruby.network.routers3.sw_input_arbiter_activity    466006073                      
system.ruby.network.routers3.sw_output_arbiter_activity    462561512                      
system.ruby.outstanding_req_hist_seqr::bucket_size            1                      
system.ruby.outstanding_req_hist_seqr::max_bucket            9                      
system.ruby.outstanding_req_hist_seqr::samples   1477590625                      
system.ruby.outstanding_req_hist_seqr::mean     1.000000                      
system.ruby.outstanding_req_hist_seqr::gmean     1.000000                      
system.ruby.outstanding_req_hist_seqr::stdev     0.000130                      
system.ruby.outstanding_req_hist_seqr    |           0      0.00%      0.00% |  1477590600    100.00%    100.00% |          25      0.00%    100.00% |           0      0.00%    100.00% |           0      0.00%    100.00% |           0      0.00%    100.00% |           0      0.00%    100.00% |           0      0.00%    100.00% |           0      0.00%    100.00% |           0      0.00%    100.00%
system.ruby.outstanding_req_hist_seqr::total   1477590625                      
system.switch_cpus0.Branches                  7142823                       # Number of branches fetched
system.switch_cpus0.committedInsts          179962722                       # Number of instructions committed
system.switch_cpus0.committedOps            289142290                       # Number of ops (including micro ops) committed
system.switch_cpus0.dtb.rdAccesses           55975537                       # TLB accesses on read requests
system.switch_cpus0.dtb.rdMisses                68472                       # TLB misses on read requests
system.switch_cpus0.dtb.wrAccesses           16500926                       # TLB accesses on write requests
system.switch_cpus0.dtb.wrMisses                 7378                       # TLB misses on write requests
system.switch_cpus0.idle_fraction            0.003749                       # Percentage of idle cycles
system.switch_cpus0.itb.rdAccesses                  0                       # TLB accesses on read requests
system.switch_cpus0.itb.rdMisses                    0                       # TLB misses on read requests
system.switch_cpus0.itb.wrAccesses          271133828                       # TLB accesses on write requests
system.switch_cpus0.itb.wrMisses                10406                       # TLB misses on write requests
system.switch_cpus0.kern.inst.arm                   0                       # number of arm instructions executed
system.switch_cpus0.kern.inst.quiesce               0                       # number of quiesce instructions executed
system.switch_cpus0.not_idle_fraction        0.996251                       # Percentage of non-idle cycles
system.switch_cpus0.numCycles              2161749083                       # number of cpu cycles simulated
system.switch_cpus0.numWorkItemsCompleted            0                       # number of work items this cpu completed
system.switch_cpus0.numWorkItemsStarted             0                       # number of work items this cpu started
system.switch_cpus0.num_busy_cycles      2153645337.003764                       # Number of busy cycles
system.switch_cpus0.num_cc_register_reads     46019122                       # number of times the CC registers were read
system.switch_cpus0.num_cc_register_writes     36441809                       # number of times the CC registers were written
system.switch_cpus0.num_conditional_control_insts      6513340                       # number of instructions that are conditional controls
system.switch_cpus0.num_fp_alu_accesses     217737894                       # Number of float alu accesses
system.switch_cpus0.num_fp_insts            217737894                       # number of float instructions
system.switch_cpus0.num_fp_register_reads    386529894                       # number of times the floating registers were read
system.switch_cpus0.num_fp_register_writes    205436367                       # number of times the floating registers were written
system.switch_cpus0.num_func_calls             440477                       # number of times a function call or return occured
system.switch_cpus0.num_idle_cycles      8103745.996236                       # Number of idle cycles
system.switch_cpus0.num_int_alu_accesses    128713044                       # Number of integer alu accesses
system.switch_cpus0.num_int_insts           128713044                       # number of integer instructions
system.switch_cpus0.num_int_register_reads    308441113                       # number of times the integer registers were read
system.switch_cpus0.num_int_register_writes     59982211                       # number of times the integer registers were written
system.switch_cpus0.num_load_insts           55907056                       # Number of load instructions
system.switch_cpus0.num_mem_refs             72401064                       # number of memory refs
system.switch_cpus0.num_store_insts          16494008                       # Number of store instructions
system.switch_cpus0.num_vec_alu_accesses            0                       # Number of vector alu accesses
system.switch_cpus0.num_vec_insts                   0                       # number of vector instructions
system.switch_cpus0.num_vec_register_reads            0                       # number of times the vector registers were read
system.switch_cpus0.num_vec_register_writes            0                       # number of times the vector registers were written
system.switch_cpus0.op_class::No_OpClass       407765      0.14%      0.14% # Class of executed instruction
system.switch_cpus0.op_class::IntAlu         91661257     31.70%     31.84% # Class of executed instruction
system.switch_cpus0.op_class::IntMult           93858      0.03%     31.87% # Class of executed instruction
system.switch_cpus0.op_class::IntDiv            62730      0.02%     31.90% # Class of executed instruction
system.switch_cpus0.op_class::FloatAdd       23360051      8.08%     39.98% # Class of executed instruction
system.switch_cpus0.op_class::FloatCmp              0      0.00%     39.98% # Class of executed instruction
system.switch_cpus0.op_class::FloatCvt            144      0.00%     39.98% # Class of executed instruction
system.switch_cpus0.op_class::FloatMult             0      0.00%     39.98% # Class of executed instruction
system.switch_cpus0.op_class::FloatMultAcc            0      0.00%     39.98% # Class of executed instruction
system.switch_cpus0.op_class::FloatDiv              0      0.00%     39.98% # Class of executed instruction
system.switch_cpus0.op_class::FloatMisc             0      0.00%     39.98% # Class of executed instruction
system.switch_cpus0.op_class::FloatSqrt             0      0.00%     39.98% # Class of executed instruction
system.switch_cpus0.op_class::SimdAdd             398      0.00%     39.98% # Class of executed instruction
system.switch_cpus0.op_class::SimdAddAcc            0      0.00%     39.98% # Class of executed instruction
system.switch_cpus0.op_class::SimdAlu           12918      0.00%     39.98% # Class of executed instruction
system.switch_cpus0.op_class::SimdCmp               0      0.00%     39.98% # Class of executed instruction
system.switch_cpus0.op_class::SimdCvt             112      0.00%     39.98% # Class of executed instruction
system.switch_cpus0.op_class::SimdMisc            239      0.00%     39.98% # Class of executed instruction
system.switch_cpus0.op_class::SimdMult              0      0.00%     39.98% # Class of executed instruction
system.switch_cpus0.op_class::SimdMultAcc            0      0.00%     39.98% # Class of executed instruction
system.switch_cpus0.op_class::SimdShift           200      0.00%     39.98% # Class of executed instruction
system.switch_cpus0.op_class::SimdShiftAcc            0      0.00%     39.98% # Class of executed instruction
system.switch_cpus0.op_class::SimdDiv               0      0.00%     39.98% # Class of executed instruction
system.switch_cpus0.op_class::SimdSqrt              0      0.00%     39.98% # Class of executed instruction
system.switch_cpus0.op_class::SimdFloatAdd     50804768     17.57%     57.55% # Class of executed instruction
system.switch_cpus0.op_class::SimdFloatAlu            0      0.00%     57.55% # Class of executed instruction
system.switch_cpus0.op_class::SimdFloatCmp            0      0.00%     57.55% # Class of executed instruction
system.switch_cpus0.op_class::SimdFloatCvt         4714      0.00%     57.55% # Class of executed instruction
system.switch_cpus0.op_class::SimdFloatDiv         8019      0.00%     57.56% # Class of executed instruction
system.switch_cpus0.op_class::SimdFloatMisc            0      0.00%     57.56% # Class of executed instruction
system.switch_cpus0.op_class::SimdFloatMult     50321363     17.40%     74.96% # Class of executed instruction
system.switch_cpus0.op_class::SimdFloatMultAcc            0      0.00%     74.96% # Class of executed instruction
system.switch_cpus0.op_class::SimdFloatSqrt         3141      0.00%     74.96% # Class of executed instruction
system.switch_cpus0.op_class::SimdReduceAdd            0      0.00%     74.96% # Class of executed instruction
system.switch_cpus0.op_class::SimdReduceAlu            0      0.00%     74.96% # Class of executed instruction
system.switch_cpus0.op_class::SimdReduceCmp            0      0.00%     74.96% # Class of executed instruction
system.switch_cpus0.op_class::SimdFloatReduceAdd            0      0.00%     74.96% # Class of executed instruction
system.switch_cpus0.op_class::SimdFloatReduceCmp            0      0.00%     74.96% # Class of executed instruction
system.switch_cpus0.op_class::SimdAes               0      0.00%     74.96% # Class of executed instruction
system.switch_cpus0.op_class::SimdAesMix            0      0.00%     74.96% # Class of executed instruction
system.switch_cpus0.op_class::SimdSha1Hash            0      0.00%     74.96% # Class of executed instruction
system.switch_cpus0.op_class::SimdSha1Hash2            0      0.00%     74.96% # Class of executed instruction
system.switch_cpus0.op_class::SimdSha256Hash            0      0.00%     74.96% # Class of executed instruction
system.switch_cpus0.op_class::SimdSha256Hash2            0      0.00%     74.96% # Class of executed instruction
system.switch_cpus0.op_class::SimdShaSigma2            0      0.00%     74.96% # Class of executed instruction
system.switch_cpus0.op_class::SimdShaSigma3            0      0.00%     74.96% # Class of executed instruction
system.switch_cpus0.op_class::SimdPredAlu            0      0.00%     74.96% # Class of executed instruction
system.switch_cpus0.op_class::MemRead        10375243      3.59%     78.55% # Class of executed instruction
system.switch_cpus0.op_class::MemWrite        4197363      1.45%     80.00% # Class of executed instruction
system.switch_cpus0.op_class::FloatMemRead     45531813     15.75%     95.75% # Class of executed instruction
system.switch_cpus0.op_class::FloatMemWrite     12296645      4.25%    100.00% # Class of executed instruction
system.switch_cpus0.op_class::IprAccess             0      0.00%    100.00% # Class of executed instruction
system.switch_cpus0.op_class::InstPrefetch            0      0.00%    100.00% # Class of executed instruction
system.switch_cpus0.op_class::total         289142741                       # Class of executed instruction
system.switch_cpus1.Branches                  8850922                       # Number of branches fetched
system.switch_cpus1.committedInsts          181558507                       # Number of instructions committed
system.switch_cpus1.committedOps            293790178                       # Number of ops (including micro ops) committed
system.switch_cpus1.dtb.rdAccesses           57061400                       # TLB accesses on read requests
system.switch_cpus1.dtb.rdMisses                65647                       # TLB misses on read requests
system.switch_cpus1.dtb.wrAccesses           16525693                       # TLB accesses on write requests
system.switch_cpus1.dtb.wrMisses                 7739                       # TLB misses on write requests
system.switch_cpus1.idle_fraction            0.000729                       # Percentage of idle cycles
system.switch_cpus1.itb.rdAccesses                  0                       # TLB accesses on read requests
system.switch_cpus1.itb.rdMisses                    0                       # TLB misses on read requests
system.switch_cpus1.itb.wrAccesses          272282202                       # TLB accesses on write requests
system.switch_cpus1.itb.wrMisses                10602                       # TLB misses on write requests
system.switch_cpus1.kern.inst.arm                   0                       # number of arm instructions executed
system.switch_cpus1.kern.inst.quiesce               0                       # number of quiesce instructions executed
system.switch_cpus1.not_idle_fraction        0.999271                       # Percentage of non-idle cycles
system.switch_cpus1.numCycles              2161748791                       # number of cpu cycles simulated
system.switch_cpus1.numWorkItemsCompleted            0                       # number of work items this cpu completed
system.switch_cpus1.numWorkItemsStarted             0                       # number of work items this cpu started
system.switch_cpus1.num_busy_cycles      2160173504.211515                       # Number of busy cycles
system.switch_cpus1.num_cc_register_reads     56032126                       # number of times the CC registers were read
system.switch_cpus1.num_cc_register_writes     39850898                       # number of times the CC registers were written
system.switch_cpus1.num_conditional_control_insts      8208031                       # number of instructions that are conditional controls
system.switch_cpus1.num_fp_alu_accesses     214183073                       # Number of float alu accesses
system.switch_cpus1.num_fp_insts            214183073                       # number of float instructions
system.switch_cpus1.num_fp_register_reads    382609282                       # number of times the floating registers were read
system.switch_cpus1.num_fp_register_writes    201710149                       # number of times the floating registers were written
system.switch_cpus1.num_func_calls             455164                       # number of times a function call or return occured
system.switch_cpus1.num_idle_cycles      1575286.788485                       # Number of idle cycles
system.switch_cpus1.num_int_alu_accesses    136619802                       # Number of integer alu accesses
system.switch_cpus1.num_int_insts           136619802                       # number of integer instructions
system.switch_cpus1.num_int_register_reads    321585540                       # number of times the integer registers were read
system.switch_cpus1.num_int_register_writes     66625385                       # number of times the integer registers were written
system.switch_cpus1.num_load_insts           56997121                       # Number of load instructions
system.switch_cpus1.num_mem_refs             73516073                       # number of memory refs
system.switch_cpus1.num_store_insts          16518952                       # Number of store instructions
system.switch_cpus1.num_vec_alu_accesses            0                       # Number of vector alu accesses
system.switch_cpus1.num_vec_insts                   0                       # number of vector instructions
system.switch_cpus1.num_vec_register_reads            0                       # number of times the vector registers were read
system.switch_cpus1.num_vec_register_writes            0                       # number of times the vector registers were written
system.switch_cpus1.op_class::No_OpClass       275970      0.09%      0.09% # Class of executed instruction
system.switch_cpus1.op_class::IntAlu         97814335     33.29%     33.39% # Class of executed instruction
system.switch_cpus1.op_class::IntMult           91081      0.03%     33.42% # Class of executed instruction
system.switch_cpus1.op_class::IntDiv            61194      0.02%     33.44% # Class of executed instruction
system.switch_cpus1.op_class::FloatAdd       21805755      7.42%     40.86% # Class of executed instruction
system.switch_cpus1.op_class::FloatCmp              0      0.00%     40.86% # Class of executed instruction
system.switch_cpus1.op_class::FloatCvt            272      0.00%     40.86% # Class of executed instruction
system.switch_cpus1.op_class::FloatMult             0      0.00%     40.86% # Class of executed instruction
system.switch_cpus1.op_class::FloatMultAcc            0      0.00%     40.86% # Class of executed instruction
system.switch_cpus1.op_class::FloatDiv              0      0.00%     40.86% # Class of executed instruction
system.switch_cpus1.op_class::FloatMisc             0      0.00%     40.86% # Class of executed instruction
system.switch_cpus1.op_class::FloatSqrt             0      0.00%     40.86% # Class of executed instruction
system.switch_cpus1.op_class::SimdAdd             144      0.00%     40.86% # Class of executed instruction
system.switch_cpus1.op_class::SimdAddAcc            0      0.00%     40.86% # Class of executed instruction
system.switch_cpus1.op_class::SimdAlu           18943      0.01%     40.87% # Class of executed instruction
system.switch_cpus1.op_class::SimdCmp               0      0.00%     40.87% # Class of executed instruction
system.switch_cpus1.op_class::SimdCvt             288      0.00%     40.87% # Class of executed instruction
[...]
system.iobus.pkt_size_system.pc.south_bridge.io_apic.int_master::system.ruby.l1_cntrl1.sequencer.pio-slave-port         1824                       # Cumulative packet size per connected master and slave (bytes)
system.iobus.pkt_size_system.pc.south_bridge.io_apic.int_master::total         1824                       # Cumulative packet size per connected master and slave (bytes)
system.iobus.pkt_size_system.ruby.l1_cntrl0.sequencer.mem-master-port::system.pc.com_1.pio            1                       # Cumulative packet size per connected master and slave (bytes)
system.iobus.pkt_size_system.ruby.l1_cntrl0.sequencer.mem-master-port::system.ruby.l1_cntrl0.sequencer.pio-slave-port         4416                       # Cumulative packet size per connected master and slave (bytes)
system.iobus.pkt_size_system.ruby.l1_cntrl0.sequencer.mem-master-port::system.ruby.l1_cntrl1.sequencer.pio-slave-port            8                       # Cumulative packet size per connected master and slave (bytes)
system.iobus.pkt_size_system.ruby.l1_cntrl0.sequencer.mem-master-port::system.ruby.l1_cntrl2.sequencer.pio-slave-port           16                       # Cumulative packet size per connected master and slave (bytes)
system.iobus.pkt_size_system.ruby.l1_cntrl0.sequencer.mem-master-port::system.ruby.l1_cntrl3.sequencer.pio-slave-port            8                       # Cumulative packet size per connected master and slave (bytes)
system.iobus.pkt_size_system.ruby.l1_cntrl0.sequencer.mem-master-port::total         4449                       # Cumulative packet size per connected master and slave (bytes)
system.iobus.pkt_size_system.ruby.l1_cntrl1.sequencer.mem-master-port::system.pc.south_bridge.ide.pio           26                       # Cumulative packet size per connected master and slave (bytes)
system.iobus.pkt_size_system.ruby.l1_cntrl1.sequencer.mem-master-port::system.pc.com_1.pio         1819                       # Cumulative packet size per connected master and slave (bytes)
system.iobus.pkt_size_system.ruby.l1_cntrl1.sequencer.mem-master-port::system.ruby.l1_cntrl0.sequencer.pio-slave-port           12                       # Cumulative packet size per connected master and slave (bytes)
system.iobus.pkt_size_system.ruby.l1_cntrl1.sequencer.mem-master-port::system.ruby.l1_cntrl1.sequencer.pio-slave-port         4472                       # Cumulative packet size per connected master and slave (bytes)
system.iobus.pkt_size_system.ruby.l1_cntrl1.sequencer.mem-master-port::system.ruby.l1_cntrl2.sequencer.pio-slave-port           16                       # Cumulative packet size per connected master and slave (bytes)
system.iobus.pkt_size_system.ruby.l1_cntrl1.sequencer.mem-master-port::system.ruby.l1_cntrl3.sequencer.pio-slave-port           12                       # Cumulative packet size per connected master and slave (bytes)
system.iobus.pkt_size_system.ruby.l1_cntrl1.sequencer.mem-master-port::total         6357                       # Cumulative packet size per connected master and slave (bytes)
system.iobus.pkt_size_system.ruby.l1_cntrl2.sequencer.mem-master-port::system.ruby.l1_cntrl0.sequencer.pio-slave-port            4                       # Cumulative packet size per connected master and slave (bytes)
system.iobus.pkt_size_system.ruby.l1_cntrl2.sequencer.mem-master-port::system.ruby.l1_cntrl2.sequencer.pio-slave-port         4388                       # Cumulative packet size per connected master and slave (bytes)
system.iobus.pkt_size_system.ruby.l1_cntrl2.sequencer.mem-master-port::system.ruby.l1_cntrl3.sequencer.pio-slave-port            4                       # Cumulative packet size per connected master and slave (bytes)
system.iobus.pkt_size_system.ruby.l1_cntrl2.sequencer.mem-master-port::total         4396                       # Cumulative packet size per connected master and slave (bytes)
system.iobus.pkt_size_system.ruby.l1_cntrl3.sequencer.mem-master-port::system.ruby.l1_cntrl0.sequencer.pio-slave-port           24                       # Cumulative packet size per connected master and slave (bytes)
system.iobus.pkt_size_system.ruby.l1_cntrl3.sequencer.mem-master-port::system.ruby.l1_cntrl1.sequencer.pio-slave-port           12                       # Cumulative packet size per connected master and slave (bytes)
system.iobus.pkt_size_system.ruby.l1_cntrl3.sequencer.mem-master-port::system.ruby.l1_cntrl2.sequencer.pio-slave-port           12                       # Cumulative packet size per connected master and slave (bytes)
system.iobus.pkt_size_system.ruby.l1_cntrl3.sequencer.mem-master-port::system.ruby.l1_cntrl3.sequencer.pio-slave-port         4476                       # Cumulative packet size per connected master and slave (bytes)
system.iobus.pkt_size_system.ruby.l1_cntrl3.sequencer.mem-master-port::total         4524                       # Cumulative packet size per connected master and slave (bytes)
system.iobus.pkt_size::total                    21550                       # Cumulative packet size per connected master and slave (bytes)
system.iobus.reqLayer2.occupancy                45500                       # Layer occupancy (ticks)
system.iobus.reqLayer2.utilization                0.0                       # Layer utilization (%)
system.iobus.power_state.pwrStateResidencyTicks::UNDEFINED 98730345013501                       # Cumulative time (in ticks) in various power states
system.iobus.reqLayer19.occupancy             3156410                       # Layer occupancy (ticks)
system.iobus.reqLayer19.utilization               0.0                       # Layer utilization (%)
system.iobus.reqLayer17.occupancy             3199410                       # Layer occupancy (ticks)
system.iobus.reqLayer17.utilization               0.0                       # Layer utilization (%)
system.iobus.reqLayer12.occupancy             2355000                       # Layer occupancy (ticks)
system.iobus.reqLayer12.utilization               0.0                       # Layer utilization (%)
system.iobus.reqLayer18.occupancy             4170905                       # Layer occupancy (ticks)
system.iobus.reqLayer18.utilization               0.0                       # Layer utilization (%)
system.iobus.respLayer9.occupancy             1703500                       # Layer occupancy (ticks)
system.iobus.respLayer9.utilization               0.0                       # Layer utilization (%)
system.iobus.respLayer5.occupancy             4913500                       # Layer occupancy (ticks)
system.iobus.respLayer5.utilization               0.0                       # Layer utilization (%)
system.iobus.respLayer7.occupancy             1649500                       # Layer occupancy (ticks)
system.iobus.respLayer7.utilization               0.0                       # Layer utilization (%)
system.iobus.respLayer0.occupancy              647499                       # Layer occupancy (ticks)
system.iobus.respLayer0.utilization               0.0                       # Layer utilization (%)
system.iobus.respLayer3.occupancy             1671499                       # Layer occupancy (ticks)
system.iobus.respLayer3.utilization               0.0                       # Layer utilization (%)
system.iobus.reqLayer20.occupancy             3206912                       # Layer occupancy (ticks)
system.iobus.reqLayer20.utilization               0.0                       # Layer utilization (%)

---------- End Simulation Statistics   ----------
)
system.iobus.pkt_count_system.ruby.l1_cntrl0.sequencer.mem-master-port::system.pc.south_bridge.ide.pio           34                       # Packet count per connected master and slave (bytes)
system.iobus.pkt_count_system.ruby.l1_cntrl0.sequencer.mem-master-port::system.ruby.l1_cntrl0.sequencer.pio-slave-port         1080                       # Packet count per connected master and slave (bytes)
system.iobus.pkt_count_system.ruby.l1_cntrl0.sequencer.mem-master-port::system.ruby.l1_cntrl1.sequencer.pio-slave-port           10                       # Packet count per connected master and slave (bytes)
system.iobus.pkt_count_system.ruby.l1_cntrl0.sequencer.mem-master-port::system.ruby.l1_cntrl2.sequencer.pio-slave-port           10                       # Packet count per connected master and slave (bytes)
system.iobus.pkt_count_system.ruby.l1_cntrl0.sequencer.mem-master-port::system.ruby.l1_cntrl3.sequencer.pio-slave-port            6                       # Packet count per connected master and slave (bytes)
system.iobus.pkt_count_system.ruby.l1_cntrl0.sequencer.mem-master-port::total         1140                       # Packet count per connected master and slave (bytes)
system.iobus.pkt_count_system.ruby.l1_cntrl1.sequencer.mem-master-port::system.pc.south_bridge.ide.pio           12                       # Packet count per connected master and slave (bytes)
system.iobus.pkt_count_system.ruby.l1_cntrl1.sequencer.mem-master-port::system.pc.com_1.pio         3820                       # Packet count per connected master and slave (bytes)
system.iobus.pkt_count_system.ruby.l1_cntrl1.sequencer.mem-master-port::system.ruby.l1_cntrl0.sequencer.pio-slave-port            8                       # Packet count per connected master and slave (bytes)
system.iobus.pkt_count_system.ruby.l1_cntrl1.sequencer.mem-master-port::system.ruby.l1_cntrl1.sequencer.pio-slave-port         1164                       # Packet count per connected master and slave (bytes)
system.iobus.pkt_count_system.ruby.l1_cntrl1.sequencer.mem-master-port::system.ruby.l1_cntrl2.sequencer.pio-slave-port            4                       # Packet count per connected master and slave (bytes)
system.iobus.pkt_count_system.ruby.l1_cntrl1.sequencer.mem-master-port::system.ruby.l1_cntrl3.sequencer.pio-slave-port           12                       # Packet count per connected master and slave (bytes)
system.iobus.pkt_count_system.ruby.l1_cntrl1.sequencer.mem-master-port::total         5020                       # Packet count per connected master and slave (bytes)
system.iobus.pkt_count_system.ruby.l1_cntrl2.sequencer.mem-master-port::system.ruby.l1_cntrl0.sequencer.pio-slave-port            4                       # Packet count per connected master and slave (bytes)
system.iobus.pkt_count_system.ruby.l1_cntrl2.sequencer.mem-master-port::system.ruby.l1_cntrl1.sequencer.pio-slave-port            8                       # Packet count per connected master and slave (bytes)
system.iobus.pkt_count_system.ruby.l1_cntrl2.sequencer.mem-master-port::system.ruby.l1_cntrl2.sequencer.pio-slave-port         1048                       # Packet count per connected master and slave (bytes)
system.iobus.pkt_count_system.ruby.l1_cntrl2.sequencer.mem-master-port::system.ruby.l1_cntrl3.sequencer.pio-slave-port            6                       # Packet count per connected master and slave (bytes)
system.iobus.pkt_count_system.ruby.l1_cntrl2.sequencer.mem-master-port::total         1066                       # Packet count per connected master and slave (bytes)
system.iobus.pkt_count_system.ruby.l1_cntrl3.sequencer.mem-master-port::system.ruby.l1_cntrl0.sequencer.pio-slave-port            2                       # Packet count per connected master and slave (bytes)
system.iobus.pkt_count_system.ruby.l1_cntrl3.sequencer.mem-master-port::system.ruby.l1_cntrl1.sequencer.pio-slave-port            6                       # Packet count per connected master and slave (bytes)
system.iobus.pkt_count_system.ruby.l1_cntrl3.sequencer.mem-master-port::system.ruby.l1_cntrl2.sequencer.pio-slave-port            4                       # Packet count per connected master and slave (bytes)
system.iobus.pkt_count_system.ruby.l1_cntrl3.sequencer.mem-master-port::system.ruby.l1_cntrl3.sequencer.pio-slave-port         1032                       # Packet count per connected master and slave (bytes)
system.iobus.pkt_count_system.ruby.l1_cntrl3.sequencer.mem-master-port::total         1044                       # Packet count per connected master and slave (bytes)
system.iobus.pkt_count::total                    9226                       # Packet count per connected master and slave (bytes)
system.iobus.pkt_size_system.pc.south_bridge.io_apic.int_master::system.ruby.l1_cntrl1.sequencer.pio-slave-port         1912                       # Cumulative packet size per connected master and slave (bytes)
system.iobus.pkt_size_system.pc.south_bridge.io_apic.int_master::total         1912                       # Cumulative packet size per connected master and slave (bytes)
system.iobus.pkt_size_system.ruby.l1_cntrl0.sequencer.mem-master-port::system.pc.south_bridge.ide.pio           20                       # Cumulative packet size per connected master and slave (bytes)
system.iobus.pkt_size_system.ruby.l1_cntrl0.sequencer.mem-master-port::system.ruby.l1_cntrl0.sequencer.pio-slave-port         2160                       # Cumulative packet size per connected master and slave (bytes)
system.iobus.pkt_size_system.ruby.l1_cntrl0.sequencer.mem-master-port::system.ruby.l1_cntrl1.sequencer.pio-slave-port           20                       # Cumulative packet size per connected master and slave (bytes)
system.iobus.pkt_size_system.ruby.l1_cntrl0.sequencer.mem-master-port::system.ruby.l1_cntrl2.sequencer.pio-slave-port           20                       # Cumulative packet size per connected master and slave (bytes)
system.iobus.pkt_size_system.ruby.l1_cntrl0.sequencer.mem-master-port::system.ruby.l1_cntrl3.sequencer.pio-slave-port           12                       # Cumulative packet size per connected master and slave (bytes)
system.iobus.pkt_size_system.ruby.l1_cntrl0.sequencer.mem-master-port::total         2232                       # Cumulative packet size per connected master and slave (bytes)
system.iobus.pkt_size_system.ruby.l1_cntrl1.sequencer.mem-master-port::system.pc.south_bridge.ide.pio            6                       # Cumulative packet size per connected master and slave (bytes)
system.iobus.pkt_size_system.ruby.l1_cntrl1.sequencer.mem-master-port::system.pc.com_1.pio         1910                       # Cumulative packet size per connected master and slave (bytes)
system.iobus.pkt_size_system.ruby.l1_cntrl1.sequencer.mem-master-port::system.ruby.l1_cntrl0.sequencer.pio-slave-port           16                       # Cumulative packet size per connected master and slave (bytes)
system.iobus.pkt_size_system.ruby.l1_cntrl1.sequencer.mem-master-port::system.ruby.l1_cntrl1.sequencer.pio-slave-port         2328                       # Cumulative packet size per connected master and slave (bytes)
system.iobus.pkt_size_system.ruby.l1_cntrl1.sequencer.mem-master-port::system.ruby.l1_cntrl2.sequencer.pio-slave-port            8                       # Cumulative packet size per connected master and slave (bytes)
system.iobus.pkt_size_system.ruby.l1_cntrl1.sequencer.mem-master-port::system.ruby.l1_cntrl3.sequencer.pio-slave-port           24                       # Cumulative packet size per connected master and slave (bytes)
system.iobus.pkt_size_system.ruby.l1_cntrl1.sequencer.mem-master-port::total         4292                       # Cumulative packet size per connected master and slave (bytes)
system.iobus.pkt_size_system.ruby.l1_cntrl2.sequencer.mem-master-port::system.ruby.l1_cntrl0.sequencer.pio-slave-port            8                       # Cumulative packet size per connected master and slave (bytes)
system.iobus.pkt_size_system.ruby.l1_cntrl2.sequencer.mem-master-port::system.ruby.l1_cntrl1.sequencer.pio-slave-port           16                       # Cumulative packet size per connected master and slave (bytes)
system.iobus.pkt_size_system.ruby.l1_cntrl2.sequencer.mem-master-port::system.ruby.l1_cntrl2.sequencer.pio-slave-port         2096                       # Cumulative packet size per connected master and slave (bytes)
system.iobus.pkt_size_system.ruby.l1_cntrl2.sequencer.mem-master-port::system.ruby.l1_cntrl3.sequencer.pio-slave-port           12                       # Cumulative packet size per connected master and slave (bytes)
system.iobus.pkt_size_system.ruby.l1_cntrl2.sequencer.mem-master-port::total         2132                       # Cumulative packet size per connected master and slave (bytes)
system.iobus.pkt_size_system.ruby.l1_cntrl3.sequencer.mem-master-port::system.ruby.l1_cntrl0.sequencer.pio-slave-port            4                       # Cumulative packet size per connected master and slave (bytes)
system.iobus.pkt_size_system.ruby.l1_cntrl3.sequencer.mem-master-port::system.ruby.l1_cntrl1.sequencer.pio-slave-port           12                       # Cumulative packet size per connected master and slave (bytes)
system.iobus.pkt_size_system.ruby.l1_cntrl3.sequencer.mem-master-port::system.ruby.l1_cntrl2.sequencer.pio-slave-port            8                       # Cumulative packet size per connected master and slave (bytes)
system.iobus.pkt_size_system.ruby.l1_cntrl3.sequencer.mem-master-port::system.ruby.l1_cntrl3.sequencer.pio-slave-port         2064                       # Cumulative packet size per connected master and slave (bytes)
system.iobus.pkt_size_system.ruby.l1_cntrl3.sequencer.mem-master-port::total         2088                       # Cumulative packet size per connected master and slave (bytes)
system.iobus.pkt_size::total                    12656                       # Cumulative packet size per connected master and slave (bytes)
system.iobus.reqLayer2.occupancy                45000                       # Layer occupancy (ticks)
system.iobus.reqLayer2.utilization                0.0                       # Layer utilization (%)
system.iobus.power_state.pwrStateResidencyTicks::UNDEFINED 97777729591501                       # Cumulative time (in ticks) in various power states
system.iobus.reqLayer19.occupancy             1559998                       # Layer occupancy (ticks)
system.iobus.reqLayer19.utilization               0.0                       # Layer utilization (%)
system.iobus.reqLayer17.occupancy             1589494                       # Layer occupancy (ticks)
system.iobus.reqLayer17.utilization               0.0                       # Layer utilization (%)
system.iobus.reqLayer12.occupancy             2850500                       # Layer occupancy (ticks)
system.iobus.reqLayer12.utilization               0.0                       # Layer utilization (%)
system.iobus.reqLayer18.occupancy             2678986                       # Layer occupancy (ticks)
system.iobus.reqLayer18.utilization               0.0                       # Layer utilization (%)
system.iobus.respLayer9.occupancy              784499                       # Layer occupancy (ticks)
system.iobus.respLayer9.utilization               0.0                       # Layer utilization (%)
system.iobus.respLayer5.occupancy             4227000                       # Layer occupancy (ticks)
system.iobus.respLayer5.utilization               0.0                       # Layer utilization (%)
system.iobus.respLayer7.occupancy              803500                       # Layer occupancy (ticks)
system.iobus.respLayer7.utilization               0.0                       # Layer utilization (%)
system.iobus.respLayer0.occupancy              705999                       # Layer occupancy (ticks)
system.iobus.respLayer0.utilization               0.0                       # Layer utilization (%)
system.iobus.respLayer3.occupancy              861000                       # Layer occupancy (ticks)
system.iobus.respLayer3.utilization               0.0                       # Layer utilization (%)
system.iobus.reqLayer20.occupancy             1539990                       # Layer occupancy (ticks)
system.iobus.reqLayer20.utilization               0.0                       # Layer utilization (%)

---------- End Simulation Statistics   ----------
