
---------- Begin Simulation Statistics ----------
final_tick                               101310427836001                       # Number of ticks from beginning of simulation (restored from checkpoints and never reset)
host_inst_rate                                 665553                       # Simulator instruction rate (inst/s)
host_mem_usage                                1975288                       # Number of bytes of host memory used
host_op_rate                                   878056                       # Simulator op (including micro ops) rate (op/s)
host_seconds                                 13060.16                       # Real time elapsed on the host
host_tick_rate                              165839471                       # Simulator tick rate (ticks/s)
sim_freq                                 1000000000000                       # Frequency of simulated ticks
sim_insts                                  8692223604                       # Number of instructions simulated
sim_ops                                   11467550527                       # Number of ops (including micro ops) simulated
sim_seconds                                  2.165890                       # Number of seconds simulated
sim_ticks                                2165889521501                       # Number of ticks simulated
system.cpu0.committedInsts                          0                       # Number of instructions committed
system.cpu0.dtb.rdAccesses                          0                       # TLB accesses on read requests
system.cpu0.dtb.rdMisses                            0                       # TLB misses on read requests
system.cpu0.dtb.wrAccesses                          0                       # TLB accesses on write requests
system.cpu0.dtb.wrMisses                            0                       # TLB misses on write requests
system.cpu0.itb.rdAccesses                          0                       # TLB accesses on read requests
system.cpu0.itb.rdMisses                            0                       # TLB misses on read requests
system.cpu0.itb.wrAccesses                          0                       # TLB accesses on write requests
system.cpu0.itb.wrMisses                            0                       # TLB misses on write requests
system.cpu0.kern.inst.arm                           0                       # number of arm instructions executed
system.cpu0.kern.inst.quiesce                       0                       # number of quiesce instructions executed
system.cpu0.numCoalescedMMIO                        0                       # number of coalesced memory mapped IO requests
system.cpu0.numCycles                               0                       # number of cpu cycles simulated
system.cpu0.numExitSignal                           0                       # exits due to signal delivery
system.cpu0.numHalt                                 0                       # number of VM exits due to wait for interrupt instructions
system.cpu0.numHypercalls                           0                       # number of hypercalls
system.cpu0.numIO                                   0                       # number of VM exits due to legacy IO
system.cpu0.numInterrupts                           0                       # number of interrupts delivered
system.cpu0.numMMIO                                 0                       # number of VM exits due to memory mapped IO
system.cpu0.numVMExits                              0                       # total number of KVM exits
system.cpu0.numVMHalfEntries                        0                       # number of KVM entries to finalize pending operations
system.cpu0.numWorkItemsCompleted                   0                       # number of work items this cpu completed
system.cpu0.numWorkItemsStarted                     0                       # number of work items this cpu started
system.cpu1.committedInsts                          0                       # Number of instructions committed
system.cpu1.dtb.rdAccesses                          0                       # TLB accesses on read requests
system.cpu1.dtb.rdMisses                            0                       # TLB misses on read requests
system.cpu1.dtb.wrAccesses                          0                       # TLB accesses on write requests
system.cpu1.dtb.wrMisses                            0                       # TLB misses on write requests
system.cpu1.itb.rdAccesses                          0                       # TLB accesses on read requests
system.cpu1.itb.rdMisses                            0                       # TLB misses on read requests
system.cpu1.itb.wrAccesses                          0                       # TLB accesses on write requests
system.cpu1.itb.wrMisses                            0                       # TLB misses on write requests
system.cpu1.kern.inst.arm                           0                       # number of arm instructions executed
system.cpu1.kern.inst.quiesce                       0                       # number of quiesce instructions executed
system.cpu1.numCoalescedMMIO                        0                       # number of coalesced memory mapped IO requests
system.cpu1.numCycles                               0                       # number of cpu cycles simulated
system.cpu1.numExitSignal                           0                       # exits due to signal delivery
system.cpu1.numHalt                                 0                       # number of VM exits due to wait for interrupt instructions
system.cpu1.numHypercalls                           0                       # number of hypercalls
system.cpu1.numIO                                   0                       # number of VM exits due to legacy IO
system.cpu1.numInterrupts                           0                       # number of interrupts delivered
system.cpu1.numMMIO                                 0                       # number of VM exits due to memory mapped IO
system.cpu1.numVMExits                              0                       # total number of KVM exits
system.cpu1.numVMHalfEntries                        0                       # number of KVM entries to finalize pending operations
system.cpu1.numWorkItemsCompleted                   0                       # number of work items this cpu completed
system.cpu1.numWorkItemsStarted                     0                       # number of work items this cpu started
system.cpu2.committedInsts                          0                       # Number of instructions committed
system.cpu2.dtb.rdAccesses                          0                       # TLB accesses on read requests
system.cpu2.dtb.rdMisses                            0                       # TLB misses on read requests
system.cpu2.dtb.wrAccesses                          0                       # TLB accesses on write requests
system.cpu2.dtb.wrMisses                            0                       # TLB misses on write requests
system.cpu2.itb.rdAccesses                          0                       # TLB accesses on read requests
system.cpu2.itb.rdMisses                            0                       # TLB misses on read requests
system.cpu2.itb.wrAccesses                          0                       # TLB accesses on write requests
system.cpu2.itb.wrMisses                            0                       # TLB misses on write requests
system.cpu2.kern.inst.arm                           0                       # number of arm instructions executed
system.cpu2.kern.inst.quiesce                       0                       # number of quiesce instructions executed
system.cpu2.numCoalescedMMIO                        0                       # number of coalesced memory mapped IO requests
system.cpu2.numCycles                               0                       # number of cpu cycles simulated
system.cpu2.numExitSignal                           0                       # exits due to signal delivery
system.cpu2.numHalt                                 0                       # number of VM exits due to wait for interrupt instructions
system.cpu2.numHypercalls                           0                       # number of hypercalls
system.cpu2.numIO                                   0                       # number of VM exits due to legacy IO
system.cpu2.numInterrupts                           0                       # number of interrupts delivered
system.cpu2.numMMIO                                 0                       # number of VM exits due to memory mapped IO
system.cpu2.numVMExits                              0                       # total number of KVM exits
system.cpu2.numVMHalfEntries                        0                       # number of KVM entries to finalize pending operations
system.cpu2.numWorkItemsCompleted                   0                       # number of work items this cpu completed
system.cpu2.numWorkItemsStarted                     0                       # number of work items this cpu started
system.cpu3.committedInsts                          0                       # Number of instructions committed
system.cpu3.dtb.rdAccesses                          0                       # TLB accesses on read requests
system.cpu3.dtb.rdMisses                            0                       # TLB misses on read requests
system.cpu3.dtb.wrAccesses                          0                       # TLB accesses on write requests
system.cpu3.dtb.wrMisses                            0                       # TLB misses on write requests
system.cpu3.itb.rdAccesses                          0                       # TLB accesses on read requests
system.cpu3.itb.rdMisses                            0                       # TLB misses on read requests
system.cpu3.itb.wrAccesses                          0                       # TLB accesses on write requests
system.cpu3.itb.wrMisses                            0                       # TLB misses on write requests
system.cpu3.kern.inst.arm                           0                       # number of arm instructions executed
system.cpu3.kern.inst.quiesce                       0                       # number of quiesce instructions executed
system.cpu3.numCoalescedMMIO                        0                       # number of coalesced memory mapped IO requests
system.cpu3.numCycles                               0                       # number of cpu cycles simulated
system.cpu3.numExitSignal                           0                       # exits due to signal delivery
system.cpu3.numHalt                                 0                       # number of VM exits due to wait for interrupt instructions
system.cpu3.numHypercalls                           0                       # number of hypercalls
system.cpu3.numIO                                   0                       # number of VM exits due to legacy IO
system.cpu3.numInterrupts                           0                       # number of interrupts delivered
system.cpu3.numMMIO                                 0                       # number of VM exits due to memory mapped IO
system.cpu3.numVMExits                              0                       # total number of KVM exits
system.cpu3.numVMHalfEntries                        0                       # number of KVM entries to finalize pending operations
system.cpu3.numWorkItemsCompleted                   0                       # number of work items this cpu completed
system.cpu3.numWorkItemsStarted                     0                       # number of work items this cpu started
system.pc.south_bridge.ide.disks.dma_read_bytes       253952                       # Number of bytes transfered via DMA reads (not PRD).
system.pc.south_bridge.ide.disks.dma_read_full_pages           62                       # Number of full page size DMA reads (not PRD).
system.pc.south_bridge.ide.disks.dma_read_txs           62                       # Number of DMA read transactions (not PRD).
system.pc.south_bridge.ide.disks.dma_write_bytes      2498560                       # Number of bytes transfered via DMA writes.
system.pc.south_bridge.ide.disks.dma_write_full_pages          610                       # Number of full page size DMA writes.
system.pc.south_bridge.ide.disks.dma_write_txs          610                       # Number of DMA write transactions.
system.ruby.DMA_Controller.I.allocI_load |        4014    100.00%    100.00% |           0      0.00%    100.00%
system.ruby.DMA_Controller.I.allocI_load::total         4014                      
system.ruby.DMA_Controller.I.allocI_store |       39040    100.00%    100.00% |           0      0.00%    100.00%
system.ruby.DMA_Controller.I.allocI_store::total        39040                      
system.ruby.DMA_Controller.I.deallocfwdfrom_in |       42070    100.00%    100.00% |           0      0.00%    100.00%
system.ruby.DMA_Controller.I.deallocfwdfrom_in::total        42070                      
system.ruby.DMA_Controller.M.allocTBE    |       39040    100.00%    100.00% |           0      0.00%    100.00%
system.ruby.DMA_Controller.M.allocTBE::total        39040                      
system.ruby.DMA_Controller.M.externalstoreMrespfrom_in |       39040    100.00%    100.00% |           0      0.00%    100.00%
system.ruby.DMA_Controller.M.externalstoreMrespfrom_in::total        39040                      
system.ruby.DMA_Controller.M_evict.Stallmandatory_in |     2112811    100.00%    100.00% |           0      0.00%    100.00%
system.ruby.DMA_Controller.M_evict.Stallmandatory_in::total      2112811                      
system.ruby.DMA_Controller.S.SloadSEvent |         126    100.00%    100.00% |           0      0.00%    100.00%
system.ruby.DMA_Controller.S.SloadSEvent::total          126                      
system.ruby.DMA_Controller.S.allocTBE    |        3274    100.00%    100.00% |           0      0.00%    100.00%
system.ruby.DMA_Controller.S.allocTBE::total         3274                      
system.ruby.DMA_Controller.S.deallocTBE  |         242    100.00%    100.00% |           0      0.00%    100.00%
system.ruby.DMA_Controller.S.deallocTBE::total          242                      
system.ruby.DMA_Controller.S.externalloadSrespfrom_in |        4014    100.00%    100.00% |           0      0.00%    100.00%
system.ruby.DMA_Controller.S.externalloadSrespfrom_in::total         4014                      
system.ruby.DMA_Controller.S_evict.Stallmandatory_in |       16624    100.00%    100.00% |           0      0.00%    100.00%
system.ruby.DMA_Controller.S_evict.Stallmandatory_in::total        16624                      
system.ruby.DMA_Controller.SloadSEvent   |         126    100.00%    100.00% |           0      0.00%    100.00%
system.ruby.DMA_Controller.SloadSEvent::total          126                      
system.ruby.DMA_Controller.Stallmandatory_in |     2129435    100.00%    100.00% |           0      0.00%    100.00%
system.ruby.DMA_Controller.Stallmandatory_in::total      2129435                      
system.ruby.DMA_Controller.allocI_load   |        4014    100.00%    100.00% |           0      0.00%    100.00%
system.ruby.DMA_Controller.allocI_load::total         4014                      
system.ruby.DMA_Controller.allocI_store  |       39040    100.00%    100.00% |           0      0.00%    100.00%
system.ruby.DMA_Controller.allocI_store::total        39040                      
system.ruby.DMA_Controller.allocTBE      |       42314    100.00%    100.00% |           0      0.00%    100.00%
system.ruby.DMA_Controller.allocTBE::total        42314                      
system.ruby.DMA_Controller.deallocTBE    |         242    100.00%    100.00% |           0      0.00%    100.00%
system.ruby.DMA_Controller.deallocTBE::total          242                      
system.ruby.DMA_Controller.deallocfwdfrom_in |       42070    100.00%    100.00% |           0      0.00%    100.00%
system.ruby.DMA_Controller.deallocfwdfrom_in::total        42070                      
system.ruby.DMA_Controller.externalloadSrespfrom_in |        4014    100.00%    100.00% |           0      0.00%    100.00%
system.ruby.DMA_Controller.externalloadSrespfrom_in::total         4014                      
system.ruby.DMA_Controller.externalstoreMrespfrom_in |       39040    100.00%    100.00% |           0      0.00%    100.00%
system.ruby.DMA_Controller.externalstoreMrespfrom_in::total        39040                      
system.ruby.Directory_Controller.I.allocTBE |     5309437     25.38%     25.38% |     5208298     24.89%     50.27% |     5189890     24.81%     75.07% |     5215008     24.93%    100.00%
system.ruby.Directory_Controller.I.allocTBE::total     20922633                      
system.ruby.Directory_Controller.I.deallocTBE |     5308484     25.38%     25.38% |     5207319     24.89%     50.27% |     5188954     24.81%     75.07% |     5214081     24.93%    100.00%
system.ruby.Directory_Controller.I.deallocTBE::total     20918838                      
system.ruby.Directory_Controller.I_GetSL1C1_0.Stallreqto_in |         144     17.27%     17.27% |         322     38.61%     55.88% |         163     19.54%     75.42% |         205     24.58%    100.00%
system.ruby.Directory_Controller.I_GetSL1C1_0.Stallreqto_in::total          834                      
system.ruby.Directory_Controller.M.allocTBE |     1937040     25.13%     25.13% |     1916262     24.86%     49.99% |     1928157     25.02%     75.01% |     1926079     24.99%    100.00%
system.ruby.Directory_Controller.M.allocTBE::total      7707538                      
system.ruby.Directory_Controller.M.deallocTBE |     1937245     25.13%     25.13% |     1916513     24.86%     49.99% |     1928374     25.02%     75.01% |     1926282     24.99%    100.00%
system.ruby.Directory_Controller.M.deallocTBE::total      7708414                      
system.ruby.Directory_Controller.M_GetS.Progress |        6563     40.33%     40.33% |        3478     21.37%     61.70% |        2982     18.32%     80.02% |        3252     19.98%    100.00%
system.ruby.Directory_Controller.M_GetS.Progress::total        16275                      
system.ruby.Directory_Controller.M_GetS.Stallreqto_in |          69     19.60%     19.60% |          55     15.62%     35.23% |         103     29.26%     64.49% |         125     35.51%    100.00%
system.ruby.Directory_Controller.M_GetS.Stallreqto_in::total          352                      
system.ruby.Directory_Controller.M_GetS_WBL1C1_0.Stallreqto_in |        2650     81.14%     81.14% |         173      5.30%     86.44% |         268      8.21%     94.64% |         175      5.36%    100.00%
system.ruby.Directory_Controller.M_GetS_WBL1C1_0.Stallreqto_in::total         3266                      
system.ruby.Directory_Controller.M_PutML1C1_0.Stallreqto_in |           2     66.67%     66.67% |           0      0.00%     66.67% |           0      0.00%     66.67% |           1     33.33%    100.00%
system.ruby.Directory_Controller.M_PutML1C1_0.Stallreqto_in::total            3                      
system.ruby.Directory_Controller.Progress |        6563     40.33%     40.33% |        3478     21.37%     61.70% |        2982     18.32%     80.02% |        3252     19.98%    100.00%
system.ruby.Directory_Controller.Progress::total        16275                      
system.ruby.Directory_Controller.S.allocTBE |     5154150     25.31%     25.31% |     5140941     25.25%     50.56% |     5064355     24.87%     75.44% |     5000758     24.56%    100.00%
system.ruby.Directory_Controller.S.allocTBE::total     20360204                      
system.ruby.Directory_Controller.S.deallocTBE |     5154898     25.31%     25.31% |     5141669     25.25%     50.56% |     5065074     24.87%     75.44% |     5001482     24.56%    100.00%
system.ruby.Directory_Controller.S.deallocTBE::total     20363123                      
system.ruby.Directory_Controller.S_GetML1C1_0.Stallreqto_in |           7     14.58%     14.58% |           0      0.00%     14.58% |          18     37.50%     52.08% |          23     47.92%    100.00%
system.ruby.Directory_Controller.S_GetML1C1_0.Stallreqto_in::total           48                      
system.ruby.Directory_Controller.S_GetSL1C1_0.Stallreqto_in |         463     31.80%     31.80% |         394     27.06%     58.86% |         347     23.83%     82.69% |         252     17.31%    100.00%
system.ruby.Directory_Controller.S_GetSL1C1_0.Stallreqto_in::total         1456                      
system.ruby.Directory_Controller.Stallreqto_in |        3335     55.97%     55.97% |         944     15.84%     71.81% |         899     15.09%     86.89% |         781     13.11%    100.00%
system.ruby.Directory_Controller.Stallreqto_in::total         5959                      
system.ruby.Directory_Controller.allocTBE |    12400627     25.31%     25.31% |    12265501     25.04%     50.35% |    12182402     24.87%     75.22% |    12141845     24.78%    100.00%
system.ruby.Directory_Controller.allocTBE::total     48990375                      
system.ruby.Directory_Controller.deallocTBE |    12400627     25.31%     25.31% |    12265501     25.04%     50.35% |    12182402     24.87%     75.22% |    12141845     24.78%    100.00%
system.ruby.Directory_Controller.deallocTBE::total     48990375                      
system.ruby.IFETCH.hit_latency_hist_seqr::bucket_size            1                      
system.ruby.IFETCH.hit_latency_hist_seqr::max_bucket            9                      
system.ruby.IFETCH.hit_latency_hist_seqr::samples   5252940207                      
system.ruby.IFETCH.hit_latency_hist_seqr |  5252940207    100.00%    100.00% |           0      0.00%    100.00% |           0      0.00%    100.00% |           0      0.00%    100.00% |           0      0.00%    100.00% |           0      0.00%    100.00% |           0      0.00%    100.00% |           0      0.00%    100.00% |           0      0.00%    100.00% |           0      0.00%    100.00%
system.ruby.IFETCH.hit_latency_hist_seqr::total   5252940207                      
system.ruby.IFETCH.latency_hist_seqr::bucket_size            1                      
system.ruby.IFETCH.latency_hist_seqr::max_bucket            9                      
system.ruby.IFETCH.latency_hist_seqr::samples   5256227986                      
system.ruby.IFETCH.latency_hist_seqr     |  5256227986    100.00%    100.00% |           0      0.00%    100.00% |           0      0.00%    100.00% |           0      0.00%    100.00% |           0      0.00%    100.00% |           0      0.00%    100.00% |           0      0.00%    100.00% |           0      0.00%    100.00% |           0      0.00%    100.00% |           0      0.00%    100.00%
system.ruby.IFETCH.latency_hist_seqr::total   5256227986                      
system.ruby.IFETCH.miss_latency_hist_seqr::bucket_size            1                      
system.ruby.IFETCH.miss_latency_hist_seqr::max_bucket            9                      
system.ruby.IFETCH.miss_latency_hist_seqr::samples      3287779                      
system.ruby.IFETCH.miss_latency_hist_seqr |     3287779    100.00%    100.00% |           0      0.00%    100.00% |           0      0.00%    100.00% |           0      0.00%    100.00% |           0      0.00%    100.00% |           0      0.00%    100.00% |           0      0.00%    100.00% |           0      0.00%    100.00% |           0      0.00%    100.00% |           0      0.00%    100.00%
system.ruby.IFETCH.miss_latency_hist_seqr::total      3287779                      
system.ruby.L1Cache_Controller.I.allocI_load |     4338045     24.67%     24.67% |     4913706     27.95%     52.62% |     4347786     24.73%     77.35% |     3981329     22.65%    100.00%
system.ruby.L1Cache_Controller.I.allocI_load::total     17580866                      
system.ruby.L1Cache_Controller.I.allocI_store |     1375788     22.52%     22.52% |     2038057     33.36%     55.88% |     1373895     22.49%     78.37% |     1321498     21.63%    100.00%
system.ruby.L1Cache_Controller.I.allocI_store::total      6109238                      
system.ruby.L1Cache_Controller.I.deallocfwdfrom_in |     5712850     24.12%     24.12% |     6950741     29.35%     53.46% |     5720665     24.15%     77.62% |     5301847     22.38%    100.00%
system.ruby.L1Cache_Controller.I.deallocfwdfrom_in::total     23686103                      
system.ruby.L1Cache_Controller.I_store.Progress |        5977     93.51%     93.51% |         154      2.41%     95.92% |         140      2.19%     98.11% |         121      1.89%    100.00%
system.ruby.L1Cache_Controller.I_store.Progress::total         6392                      
system.ruby.L1Cache_Controller.I_store.Stallfwdfrom_in |          15     26.32%     26.32% |           7     12.28%     38.60% |          14     24.56%     63.16% |          21     36.84%    100.00%
system.ruby.L1Cache_Controller.I_store.Stallfwdfrom_in::total           57                      
system.ruby.L1Cache_Controller.M.MloadMEvent |    78154077     23.83%     23.83% |    92222763     28.11%     51.94% |    78001257     23.78%     75.72% |    79644212     24.28%    100.00%
system.ruby.L1Cache_Controller.M.MloadMEvent::total    328022309                      
system.ruby.L1Cache_Controller.M.MstoreMEvent |    57842160     23.82%     23.82% |    69923478     28.79%     52.61% |    57842592     23.82%     76.43% |    57229087     23.57%    100.00%
system.ruby.L1Cache_Controller.M.MstoreMEvent::total    242837317                      
system.ruby.L1Cache_Controller.M.allocTBE |     1745901     22.77%     22.77% |     2523929     32.91%     55.68% |     1730407     22.57%     78.25% |     1668257     21.75%    100.00%
system.ruby.L1Cache_Controller.M.allocTBE::total      7668494                      
system.ruby.L1Cache_Controller.M.externalstoreMrespfrom_in |     1746017     22.77%     22.77% |     2524404     32.92%     55.68% |     1730568     22.56%     78.25% |     1668381     21.75%    100.00%
system.ruby.L1Cache_Controller.M.externalstoreMrespfrom_in::total      7669370                      
system.ruby.L1Cache_Controller.M_evict.Stallmandatory_in |         899     24.54%     24.54% |         886     24.18%     48.72% |         949     25.90%     74.62% |         930     25.38%    100.00%
system.ruby.L1Cache_Controller.M_evict.Stallmandatory_in::total         3664                      
system.ruby.L1Cache_Controller.M_evict_x_I.Progress |           0      0.00%      0.00% |           0      0.00%      0.00% |           0      0.00%      0.00% |           1    100.00%    100.00%
system.ruby.L1Cache_Controller.M_evict_x_I.Progress::total            1                      
system.ruby.L1Cache_Controller.M_evict_x_I.Stallmandatory_in |           0      0.00%      0.00% |           0      0.00%      0.00% |           0      0.00%      0.00% |           4    100.00%    100.00%
system.ruby.L1Cache_Controller.M_evict_x_I.Stallmandatory_in::total            4                      
system.ruby.L1Cache_Controller.MloadMEvent |    78154077     23.83%     23.83% |    92222763     28.11%     51.94% |    78001257     23.78%     75.72% |    79644212     24.28%    100.00%
system.ruby.L1Cache_Controller.MloadMEvent::total    328022309                      
system.ruby.L1Cache_Controller.MstoreMEvent |    57842160     23.82%     23.82% |    69923478     28.79%     52.61% |    57842592     23.82%     76.43% |    57229087     23.57%    100.00%
system.ruby.L1Cache_Controller.MstoreMEvent::total    242837317                      
system.ruby.L1Cache_Controller.Progress  |      388795     24.49%     24.49% |      490883     30.92%     55.42% |      358767     22.60%     78.02% |      348914     21.98%    100.00%
system.ruby.L1Cache_Controller.Progress::total      1587359                      
system.ruby.L1Cache_Controller.S.SloadSEvent |  1366209664     24.02%     24.02% |  1560145811     27.43%     51.46% |  1372156062     24.13%     75.58% |  1388664476     24.42%    100.00%
system.ruby.L1Cache_Controller.S.SloadSEvent::total   5687176013                      
system.ruby.L1Cache_Controller.S.allocTBE |     4344979     24.70%     24.70% |     4915904     27.94%     52.64% |     4349681     24.72%     77.36% |     3983210     22.64%    100.00%
system.ruby.L1Cache_Controller.S.allocTBE::total     17593774                      
system.ruby.L1Cache_Controller.S.deallocTBE |        7801     48.66%     48.66% |        2745     17.12%     65.78% |        2750     17.15%     82.93% |        2737     17.07%    100.00%
system.ruby.L1Cache_Controller.S.deallocTBE::total        16033                      
system.ruby.L1Cache_Controller.S.externalloadSrespfrom_in |     4338045     24.67%     24.67% |     4913706     27.95%     52.62% |     4347786     24.73%     77.35% |     3981329     22.65%    100.00%
system.ruby.L1Cache_Controller.S.externalloadSrespfrom_in::total     17580866                      
system.ruby.L1Cache_Controller.S_evict.Stallmandatory_in |         571     28.78%     28.78% |         473     23.84%     52.62% |         448     22.58%     75.20% |         492     24.80%    100.00%
system.ruby.L1Cache_Controller.S_evict.Stallmandatory_in::total         1984                      
system.ruby.L1Cache_Controller.S_evict_x_I.Progress |           0      0.00%      0.00% |           0      0.00%      0.00% |           1     33.33%     33.33% |           2     66.67%    100.00%
system.ruby.L1Cache_Controller.S_evict_x_I.Progress::total            3                      
system.ruby.L1Cache_Controller.S_evict_x_I.Stallmandatory_in |           0      0.00%      0.00% |           0      0.00%      0.00% |           1     33.33%     33.33% |           2     66.67%    100.00%
system.ruby.L1Cache_Controller.S_evict_x_I.Stallmandatory_in::total            3                      
system.ruby.L1Cache_Controller.S_store.Progress |      382814     24.21%     24.21% |      490729     31.04%     55.25% |      358625     22.68%     77.94% |      348789     22.06%    100.00%
system.ruby.L1Cache_Controller.S_store.Progress::total      1580957                      
system.ruby.L1Cache_Controller.S_store.Stallfwdfrom_in |          22     35.48%     35.48% |          13     20.97%     56.45% |          17     27.42%     83.87% |          10     16.13%    100.00%
system.ruby.L1Cache_Controller.S_store.Stallfwdfrom_in::total           62                      
system.ruby.L1Cache_Controller.S_store_GetM_Ack_AD.Progress |           4     66.67%     66.67% |           0      0.00%     66.67% |           1     16.67%     83.33% |           1     16.67%    100.00%
system.ruby.L1Cache_Controller.S_store_GetM_Ack_AD.Progress::total            6                      
system.ruby.L1Cache_Controller.S_store_GetM_Ack_AD.Stallfwdfrom_in |           7    100.00%    100.00% |           0      0.00%    100.00% |           0      0.00%    100.00% |           0      0.00%    100.00%
system.ruby.L1Cache_Controller.S_store_GetM_Ack_AD.Stallfwdfrom_in::total            7                      
system.ruby.L1Cache_Controller.SloadSEvent |  1366209664     24.02%     24.02% |  1560145811     27.43%     51.46% |  1372156062     24.13%     75.58% |  1388664476     24.42%    100.00%
system.ruby.L1Cache_Controller.SloadSEvent::total   5687176013                      
system.ruby.L1Cache_Controller.Stallfwdfrom_in |          44     34.92%     34.92% |          20     15.87%     50.79% |          31     24.60%     75.40% |          31     24.60%    100.00%
system.ruby.L1Cache_Controller.Stallfwdfrom_in::total          126                      
system.ruby.L1Cache_Controller.Stallmandatory_in |        1470     25.99%     25.99% |        1359     24.03%     50.03% |        1398     24.72%     74.75% |        1428     25.25%    100.00%
system.ruby.L1Cache_Controller.Stallmandatory_in::total         5655                      
system.ruby.L1Cache_Controller.allocI_load |     4338045     24.67%     24.67% |     4913706     27.95%     52.62% |     4347786     24.73%     77.35% |     3981329     22.65%    100.00%
system.ruby.L1Cache_Controller.allocI_load::total     17580866                      
system.ruby.L1Cache_Controller.allocI_store |     1375788     22.52%     22.52% |     2038057     33.36%     55.88% |     1373895     22.49%     78.37% |     1321498     21.63%    100.00%
system.ruby.L1Cache_Controller.allocI_store::total      6109238                      
system.ruby.L1Cache_Controller.allocTBE  |     6090880     24.11%     24.11% |     7439833     29.45%     53.56% |     6080088     24.07%     77.63% |     5651467     22.37%    100.00%
system.ruby.L1Cache_Controller.allocTBE::total     25262268                      
system.ruby.L1Cache_Controller.deallocTBE |        7801     48.66%     48.66% |        2745     17.12%     65.78% |        2750     17.15%     82.93% |        2737     17.07%    100.00%
system.ruby.L1Cache_Controller.deallocTBE::total        16033                      
system.ruby.L1Cache_Controller.deallocfwdfrom_in |     5712850     24.12%     24.12% |     6950741     29.35%     53.46% |     5720665     24.15%     77.62% |     5301847     22.38%    100.00%
system.ruby.L1Cache_Controller.deallocfwdfrom_in::total     23686103                      
system.ruby.L1Cache_Controller.externalloadSrespfrom_in |     4338045     24.67%     24.67% |     4913706     27.95%     52.62% |     4347786     24.73%     77.35% |     3981329     22.65%    100.00%
system.ruby.L1Cache_Controller.externalloadSrespfrom_in::total     17580866                      
system.ruby.L1Cache_Controller.externalstoreMrespfrom_in |     1746017     22.77%     22.77% |     2524404     32.92%     55.68% |     1730568     22.56%     78.25% |     1668381     21.75%    100.00%
system.ruby.L1Cache_Controller.externalstoreMrespfrom_in::total      7669370                      
system.ruby.LD.hit_latency_hist_seqr::bucket_size            1                      
system.ruby.LD.hit_latency_hist_seqr::max_bucket            9                      
system.ruby.LD.hit_latency_hist_seqr::samples    762258115                      
system.ruby.LD.hit_latency_hist_seqr     |   762258115    100.00%    100.00% |           0      0.00%    100.00% |           0      0.00%    100.00% |           0      0.00%    100.00% |           0      0.00%    100.00% |           0      0.00%    100.00% |           0      0.00%    100.00% |           0      0.00%    100.00% |           0      0.00%    100.00% |           0      0.00%    100.00%
system.ruby.LD.hit_latency_hist_seqr::total    762258115                      
system.ruby.LD.latency_hist_seqr::bucket_size            1                      
system.ruby.LD.latency_hist_seqr::max_bucket            9                      
system.ruby.LD.latency_hist_seqr::samples    776551202                      
system.ruby.LD.latency_hist_seqr         |   776551202    100.00%    100.00% |           0      0.00%    100.00% |           0      0.00%    100.00% |           0      0.00%    100.00% |           0      0.00%    100.00% |           0      0.00%    100.00% |           0      0.00%    100.00% |           0      0.00%    100.00% |           0      0.00%    100.00% |           0      0.00%    100.00%
system.ruby.LD.latency_hist_seqr::total     776551202                      
system.ruby.LD.miss_latency_hist_seqr::bucket_size            1                      
system.ruby.LD.miss_latency_hist_seqr::max_bucket            9                      
system.ruby.LD.miss_latency_hist_seqr::samples     14293087                      
system.ruby.LD.miss_latency_hist_seqr    |    14293087    100.00%    100.00% |           0      0.00%    100.00% |           0      0.00%    100.00% |           0      0.00%    100.00% |           0      0.00%    100.00% |           0      0.00%    100.00% |           0      0.00%    100.00% |           0      0.00%    100.00% |           0      0.00%    100.00% |           0      0.00%    100.00%
system.ruby.LD.miss_latency_hist_seqr::total     14293087                      
system.ruby.Locked_RMW_Read.hit_latency_hist_seqr::bucket_size            1                      
system.ruby.Locked_RMW_Read.hit_latency_hist_seqr::max_bucket            9                      
system.ruby.Locked_RMW_Read.hit_latency_hist_seqr::samples       202859                      
system.ruby.Locked_RMW_Read.hit_latency_hist_seqr |      202859    100.00%    100.00% |           0      0.00%    100.00% |           0      0.00%    100.00% |           0      0.00%    100.00% |           0      0.00%    100.00% |           0      0.00%    100.00% |           0      0.00%    100.00% |           0      0.00%    100.00% |           0      0.00%    100.00% |           0      0.00%    100.00%
system.ruby.Locked_RMW_Read.hit_latency_hist_seqr::total       202859                      
system.ruby.Locked_RMW_Read.latency_hist_seqr::bucket_size            1                      
system.ruby.Locked_RMW_Read.latency_hist_seqr::max_bucket            9                      
system.ruby.Locked_RMW_Read.latency_hist_seqr::samples       274954                      
system.ruby.Locked_RMW_Read.latency_hist_seqr |      274954    100.00%    100.00% |           0      0.00%    100.00% |           0      0.00%    100.00% |           0      0.00%    100.00% |           0      0.00%    100.00% |           0      0.00%    100.00% |           0      0.00%    100.00% |           0      0.00%    100.00% |           0      0.00%    100.00% |           0      0.00%    100.00%
system.ruby.Locked_RMW_Read.latency_hist_seqr::total       274954                      
system.ruby.Locked_RMW_Read.miss_latency_hist_seqr::bucket_size            1                      
system.ruby.Locked_RMW_Read.miss_latency_hist_seqr::max_bucket            9                      
system.ruby.Locked_RMW_Read.miss_latency_hist_seqr::samples        72095                      
system.ruby.Locked_RMW_Read.miss_latency_hist_seqr |       72095    100.00%    100.00% |           0      0.00%    100.00% |           0      0.00%    100.00% |           0      0.00%    100.00% |           0      0.00%    100.00% |           0      0.00%    100.00% |           0      0.00%    100.00% |           0      0.00%    100.00% |           0      0.00%    100.00% |           0      0.00%    100.00%
system.ruby.Locked_RMW_Read.miss_latency_hist_seqr::total        72095                      
system.ruby.Locked_RMW_Write.hit_latency_hist_seqr::bucket_size            1                      
system.ruby.Locked_RMW_Write.hit_latency_hist_seqr::max_bucket            9                      
system.ruby.Locked_RMW_Write.hit_latency_hist_seqr::samples       274954                      
system.ruby.Locked_RMW_Write.hit_latency_hist_seqr |      274954    100.00%    100.00% |           0      0.00%    100.00% |           0      0.00%    100.00% |           0      0.00%    100.00% |           0      0.00%    100.00% |           0      0.00%    100.00% |           0      0.00%    100.00% |           0      0.00%    100.00% |           0      0.00%    100.00% |           0      0.00%    100.00%
system.ruby.Locked_RMW_Write.hit_latency_hist_seqr::total       274954                      
system.ruby.Locked_RMW_Write.latency_hist_seqr::bucket_size            1                      
system.ruby.Locked_RMW_Write.latency_hist_seqr::max_bucket            9                      
system.ruby.Locked_RMW_Write.latency_hist_seqr::samples       274954                      
system.ruby.Locked_RMW_Write.latency_hist_seqr |      274954    100.00%    100.00% |           0      0.00%    100.00% |           0      0.00%    100.00% |           0      0.00%    100.00% |           0      0.00%    100.00% |           0      0.00%    100.00% |           0      0.00%    100.00% |           0      0.00%    100.00% |           0      0.00%    100.00% |           0      0.00%    100.00%
system.ruby.Locked_RMW_Write.latency_hist_seqr::total       274954                      
system.ruby.RMW_Read.hit_latency_hist_seqr::bucket_size            1                      
system.ruby.RMW_Read.hit_latency_hist_seqr::max_bucket            9                      
system.ruby.RMW_Read.hit_latency_hist_seqr::samples      8270804                      
system.ruby.RMW_Read.hit_latency_hist_seqr |     8270804    100.00%    100.00% |           0      0.00%    100.00% |           0      0.00%    100.00% |           0      0.00%    100.00% |           0      0.00%    100.00% |           0      0.00%    100.00% |           0      0.00%    100.00% |           0      0.00%    100.00% |           0      0.00%    100.00% |           0      0.00%    100.00%
system.ruby.RMW_Read.hit_latency_hist_seqr::total      8270804                      
system.ruby.RMW_Read.latency_hist_seqr::bucket_size            1                      
system.ruby.RMW_Read.latency_hist_seqr::max_bucket            9                      
system.ruby.RMW_Read.latency_hist_seqr::samples      8398434                      
system.ruby.RMW_Read.latency_hist_seqr   |     8398434    100.00%    100.00% |           0      0.00%    100.00% |           0      0.00%    100.00% |           0      0.00%    100.00% |           0      0.00%    100.00% |           0      0.00%    100.00% |           0      0.00%    100.00% |           0      0.00%    100.00% |           0      0.00%    100.00% |           0      0.00%    100.00%
system.ruby.RMW_Read.latency_hist_seqr::total      8398434                      
system.ruby.RMW_Read.miss_latency_hist_seqr::bucket_size            1                      
system.ruby.RMW_Read.miss_latency_hist_seqr::max_bucket            9                      
system.ruby.RMW_Read.miss_latency_hist_seqr::samples       127630                      
system.ruby.RMW_Read.miss_latency_hist_seqr |      127630    100.00%    100.00% |           0      0.00%    100.00% |           0      0.00%    100.00% |           0      0.00%    100.00% |           0      0.00%    100.00% |           0      0.00%    100.00% |           0      0.00%    100.00% |           0      0.00%    100.00% |           0      0.00%    100.00% |           0      0.00%    100.00%
system.ruby.RMW_Read.miss_latency_hist_seqr::total       127630                      
system.ruby.ST.hit_latency_hist_seqr::bucket_size            1                      
system.ruby.ST.hit_latency_hist_seqr::max_bucket            9                      
system.ruby.ST.hit_latency_hist_seqr::samples    234088700                      
system.ruby.ST.hit_latency_hist_seqr     |   234088700    100.00%    100.00% |           0      0.00%    100.00% |           0      0.00%    100.00% |           0      0.00%    100.00% |           0      0.00%    100.00% |           0      0.00%    100.00% |           0      0.00%    100.00% |           0      0.00%    100.00% |           0      0.00%    100.00% |           0      0.00%    100.00%
system.ruby.ST.hit_latency_hist_seqr::total    234088700                      
system.ruby.ST.latency_hist_seqr::bucket_size            1                      
system.ruby.ST.latency_hist_seqr::max_bucket            9                      
system.ruby.ST.latency_hist_seqr::samples    241558345                      
system.ruby.ST.latency_hist_seqr         |   241558345    100.00%    100.00% |           0      0.00%    100.00% |           0      0.00%    100.00% |           0      0.00%    100.00% |           0      0.00%    100.00% |           0      0.00%    100.00% |           0      0.00%    100.00% |           0      0.00%    100.00% |           0      0.00%    100.00% |           0      0.00%    100.00%
system.ruby.ST.latency_hist_seqr::total     241558345                      
system.ruby.ST.miss_latency_hist_seqr::bucket_size            1                      
system.ruby.ST.miss_latency_hist_seqr::max_bucket            9                      
system.ruby.ST.miss_latency_hist_seqr::samples      7469645                      
system.ruby.ST.miss_latency_hist_seqr    |     7469645    100.00%    100.00% |           0      0.00%    100.00% |           0      0.00%    100.00% |           0      0.00%    100.00% |           0      0.00%    100.00% |           0      0.00%    100.00% |           0      0.00%    100.00% |           0      0.00%    100.00% |           0      0.00%    100.00% |           0      0.00%    100.00%
system.ruby.ST.miss_latency_hist_seqr::total      7469645                      
system.ruby.dir_cntrl0.fwdFrom.avg_buf_msgs     0.008321                       # Average number of messages in buffer
system.ruby.dir_cntrl0.fwdFrom.avg_stall_time  2999.986774                       # Average number of cycles messages are stalled in this MB
system.ruby.dir_cntrl0.reqTo.avg_buf_msgs     0.002870                       # Average number of messages in buffer
system.ruby.dir_cntrl0.reqTo.avg_stall_time  5162.239708                       # Average number of cycles messages are stalled in this MB
system.ruby.dir_cntrl0.requestToMemory.avg_buf_msgs     0.001925                       # Average number of messages in buffer
system.ruby.dir_cntrl0.requestToMemory.avg_stall_time   499.999873                       # Average number of cycles messages are stalled in this MB
system.ruby.dir_cntrl0.respFrom.avg_buf_msgs     0.008970                       # Average number of messages in buffer
system.ruby.dir_cntrl0.respFrom.avg_stall_time  3006.993031                       # Average number of cycles messages are stalled in this MB
system.ruby.dir_cntrl0.respTo.avg_buf_msgs     0.000002                       # Average number of messages in buffer
system.ruby.dir_cntrl0.respTo.avg_stall_time 23923.057447                       # Average number of cycles messages are stalled in this MB
system.ruby.dir_cntrl0.responseFromMemory.avg_buf_msgs     0.001927                       # Average number of messages in buffer
system.ruby.dir_cntrl0.responseFromMemory.avg_stall_time   499.999854                       # Average number of cycles messages are stalled in this MB
system.ruby.dir_cntrl1.fwdFrom.avg_buf_msgs     0.008235                       # Average number of messages in buffer
system.ruby.dir_cntrl1.fwdFrom.avg_stall_time  2999.972886                       # Average number of cycles messages are stalled in this MB
system.ruby.dir_cntrl1.reqTo.avg_buf_msgs     0.002834                       # Average number of messages in buffer
system.ruby.dir_cntrl1.reqTo.avg_stall_time  5043.767776                       # Average number of cycles messages are stalled in this MB
system.ruby.dir_cntrl1.requestToMemory.avg_buf_msgs     0.001902                       # Average number of messages in buffer
system.ruby.dir_cntrl1.requestToMemory.avg_stall_time   499.999971                       # Average number of cycles messages are stalled in this MB
system.ruby.dir_cntrl1.respFrom.avg_buf_msgs     0.008862                       # Average number of messages in buffer
system.ruby.dir_cntrl1.respFrom.avg_stall_time  3007.360406                       # Average number of cycles messages are stalled in this MB
system.ruby.dir_cntrl1.respTo.avg_buf_msgs     0.000001                       # Average number of messages in buffer
system.ruby.dir_cntrl1.respTo.avg_stall_time 24583.627142                       # Average number of cycles messages are stalled in this MB
system.ruby.dir_cntrl1.responseFromMemory.avg_buf_msgs     0.001905                       # Average number of messages in buffer
system.ruby.dir_cntrl1.responseFromMemory.avg_stall_time   499.999952                       # Average number of cycles messages are stalled in this MB
system.ruby.dir_cntrl2.fwdFrom.avg_buf_msgs     0.008171                       # Average number of messages in buffer
system.ruby.dir_cntrl2.fwdFrom.avg_stall_time  2999.978353                       # Average number of cycles messages are stalled in this MB
system.ruby.dir_cntrl2.reqTo.avg_buf_msgs     0.002814                       # Average number of messages in buffer
system.ruby.dir_cntrl2.reqTo.avg_stall_time  5324.454466                       # Average number of cycles messages are stalled in this MB
system.ruby.dir_cntrl2.requestToMemory.avg_buf_msgs     0.001896                       # Average number of messages in buffer
system.ruby.dir_cntrl2.requestToMemory.avg_stall_time   499.999949                       # Average number of cycles messages are stalled in this MB
system.ruby.dir_cntrl2.respFrom.avg_buf_msgs     0.008818                       # Average number of messages in buffer
system.ruby.dir_cntrl2.respFrom.avg_stall_time  3007.453068                       # Average number of cycles messages are stalled in this MB
system.ruby.dir_cntrl2.respTo.avg_buf_msgs     0.000001                       # Average number of messages in buffer
system.ruby.dir_cntrl2.respTo.avg_stall_time 24596.068741                       # Average number of cycles messages are stalled in this MB
system.ruby.dir_cntrl2.responseFromMemory.avg_buf_msgs     0.001899                       # Average number of messages in buffer
system.ruby.dir_cntrl2.responseFromMemory.avg_stall_time   499.999930                       # Average number of cycles messages are stalled in this MB
system.ruby.dir_cntrl3.fwdFrom.avg_buf_msgs     0.008152                       # Average number of messages in buffer
system.ruby.dir_cntrl3.fwdFrom.avg_stall_time  2999.966538                       # Average number of cycles messages are stalled in this MB
system.ruby.dir_cntrl3.reqTo.avg_buf_msgs     0.002805                       # Average number of messages in buffer
system.ruby.dir_cntrl3.reqTo.avg_stall_time  5186.146827                       # Average number of cycles messages are stalled in this MB
system.ruby.dir_cntrl3.requestToMemory.avg_buf_msgs     0.001890                       # Average number of messages in buffer
system.ruby.dir_cntrl3.requestToMemory.avg_stall_time   499.999999                       # Average number of cycles messages are stalled in this MB
system.ruby.dir_cntrl3.respFrom.avg_buf_msgs     0.008774                       # Average number of messages in buffer
system.ruby.dir_cntrl3.respFrom.avg_stall_time  3007.889140                       # Average number of cycles messages are stalled in this MB
system.ruby.dir_cntrl3.respTo.avg_buf_msgs     0.000001                       # Average number of messages in buffer
system.ruby.dir_cntrl3.respTo.avg_stall_time 25270.349535                       # Average number of cycles messages are stalled in this MB
system.ruby.dir_cntrl3.responseFromMemory.avg_buf_msgs     0.001892                       # Average number of messages in buffer
system.ruby.dir_cntrl3.responseFromMemory.avg_stall_time   499.999979                       # Average number of cycles messages are stalled in this MB
system.ruby.dma_cntrl0.cache.demand_accesses            0                       # Number of cache demand accesses
system.ruby.dma_cntrl0.cache.demand_hits            0                       # Number of cache demand hits
system.ruby.dma_cntrl0.cache.demand_misses            0                       # Number of cache demand misses
system.ruby.dma_cntrl0.fully_busy_cycles       378184                       # cycles for which number of transistions == max transitions
system.ruby.dma_cntrl0.fwdFrom.avg_buf_msgs     0.000010                       # Average number of messages in buffer
system.ruby.dma_cntrl0.fwdFrom.avg_stall_time  7467.622841                       # Average number of cycles messages are stalled in this MB
system.ruby.dma_cntrl0.mandatoryQueue.avg_buf_msgs     0.005814                       # Average number of messages in buffer
system.ruby.dma_cntrl0.mandatoryQueue.avg_stall_time 343699.960183                       # Average number of cycles messages are stalled in this MB
system.ruby.dma_cntrl0.reqTo.avg_buf_msgs     0.010520                       # Average number of messages in buffer
system.ruby.dma_cntrl0.reqTo.avg_stall_time 16787.345560                       # Average number of cycles messages are stalled in this MB
system.ruby.dma_cntrl0.respFrom.avg_buf_msgs     0.000010                       # Average number of messages in buffer
system.ruby.dma_cntrl0.respFrom.avg_stall_time 309710.790196                       # Average number of cycles messages are stalled in this MB
system.ruby.dma_cntrl0.respTo.avg_buf_msgs     0.000000                       # Average number of messages in buffer
system.ruby.dma_cntrl0.respTo.avg_stall_time   783.843528                       # Average number of cycles messages are stalled in this MB
system.ruby.hit_latency_hist_seqr::bucket_size            1                      
system.ruby.hit_latency_hist_seqr::max_bucket            9                      
system.ruby.hit_latency_hist_seqr::samples   6258035639                      
system.ruby.hit_latency_hist_seqr        |  6258035639    100.00%    100.00% |           0      0.00%    100.00% |           0      0.00%    100.00% |           0      0.00%    100.00% |           0      0.00%    100.00% |           0      0.00%    100.00% |           0      0.00%    100.00% |           0      0.00%    100.00% |           0      0.00%    100.00% |           0      0.00%    100.00%
system.ruby.hit_latency_hist_seqr::total   6258035639                      
system.ruby.io_controller.cache.demand_accesses            0                       # Number of cache demand accesses
system.ruby.io_controller.cache.demand_hits            0                       # Number of cache demand hits
system.ruby.io_controller.cache.demand_misses            0                       # Number of cache demand misses
system.ruby.l1_cntrl0.cache.demand_accesses            0                       # Number of cache demand accesses
system.ruby.l1_cntrl0.cache.demand_hits             0                       # Number of cache demand hits
system.ruby.l1_cntrl0.cache.demand_misses            0                       # Number of cache demand misses
system.ruby.l1_cntrl0.fully_busy_cycles             6                       # cycles for which number of transistions == max transitions
system.ruby.l1_cntrl0.fwdFrom.avg_buf_msgs     0.308901                       # Average number of messages in buffer
system.ruby.l1_cntrl0.fwdFrom.avg_stall_time  6437.626256                       # Average number of cycles messages are stalled in this MB
system.ruby.l1_cntrl0.mandatoryQueue.avg_buf_msgs     0.384158                       # Average number of messages in buffer
system.ruby.l1_cntrl0.mandatoryQueue.avg_stall_time  2118.081134                       # Average number of cycles messages are stalled in this MB
system.ruby.l1_cntrl0.reqTo.avg_buf_msgs     0.002722                       # Average number of messages in buffer
system.ruby.l1_cntrl0.reqTo.avg_stall_time   499.980466                       # Average number of cycles messages are stalled in this MB
system.ruby.l1_cntrl0.respFrom.avg_buf_msgs     0.001409                       # Average number of messages in buffer
system.ruby.l1_cntrl0.respFrom.avg_stall_time 16620.412871                       # Average number of cycles messages are stalled in this MB
system.ruby.l1_cntrl0.respTo.avg_buf_msgs     0.000006                       # Average number of messages in buffer
system.ruby.l1_cntrl0.respTo.avg_stall_time   959.945577                       # Average number of cycles messages are stalled in this MB
system.ruby.l1_cntrl1.cache.demand_accesses            0                       # Number of cache demand accesses
system.ruby.l1_cntrl1.cache.demand_hits             0                       # Number of cache demand hits
system.ruby.l1_cntrl1.cache.demand_misses            0                       # Number of cache demand misses
system.ruby.l1_cntrl1.fully_busy_cycles             2                       # cycles for which number of transistions == max transitions
system.ruby.l1_cntrl1.fwdFrom.avg_buf_msgs     0.815239                       # Average number of messages in buffer
system.ruby.l1_cntrl1.fwdFrom.avg_stall_time  6508.366096                       # Average number of cycles messages are stalled in this MB
system.ruby.l1_cntrl1.mandatoryQueue.avg_buf_msgs     0.445682                       # Average number of messages in buffer
system.ruby.l1_cntrl1.mandatoryQueue.avg_stall_time  2536.476686                       # Average number of cycles messages are stalled in this MB
system.ruby.l1_cntrl1.reqTo.avg_buf_msgs     0.003319                       # Average number of messages in buffer
system.ruby.l1_cntrl1.reqTo.avg_stall_time   500.000477                       # Average number of cycles messages are stalled in this MB
system.ruby.l1_cntrl1.respFrom.avg_buf_msgs     0.001718                       # Average number of messages in buffer
system.ruby.l1_cntrl1.respFrom.avg_stall_time 16622.390430                       # Average number of cycles messages are stalled in this MB
system.ruby.l1_cntrl1.respTo.avg_buf_msgs     0.000017                       # Average number of messages in buffer
system.ruby.l1_cntrl1.respTo.avg_stall_time   532.830913                       # Average number of cycles messages are stalled in this MB
system.ruby.l1_cntrl2.cache.demand_accesses            0                       # Number of cache demand accesses
system.ruby.l1_cntrl2.cache.demand_hits             0                       # Number of cache demand hits
system.ruby.l1_cntrl2.cache.demand_misses            0                       # Number of cache demand misses
system.ruby.l1_cntrl2.fully_busy_cycles             5                       # cycles for which number of transistions == max transitions
system.ruby.l1_cntrl2.fwdFrom.avg_buf_msgs     8.567014                       # Average number of messages in buffer
system.ruby.l1_cntrl2.fwdFrom.avg_stall_time  6507.227869                       # Average number of cycles messages are stalled in this MB
system.ruby.l1_cntrl2.mandatoryQueue.avg_buf_msgs     0.385516                       # Average number of messages in buffer
system.ruby.l1_cntrl2.mandatoryQueue.avg_stall_time  2121.812524                       # Average number of cycles messages are stalled in this MB
system.ruby.l1_cntrl2.reqTo.avg_buf_msgs     0.002722                       # Average number of messages in buffer
system.ruby.l1_cntrl2.reqTo.avg_stall_time   500.000464                       # Average number of cycles messages are stalled in this MB
system.ruby.l1_cntrl2.respFrom.avg_buf_msgs     0.001404                       # Average number of messages in buffer
system.ruby.l1_cntrl2.respFrom.avg_stall_time 16481.954761                       # Average number of cycles messages are stalled in this MB
system.ruby.l1_cntrl2.respTo.avg_buf_msgs     0.000004                       # Average number of messages in buffer
system.ruby.l1_cntrl2.respTo.avg_stall_time   552.297762                       # Average number of cycles messages are stalled in this MB
system.ruby.l1_cntrl3.cache.demand_accesses            0                       # Number of cache demand accesses
system.ruby.l1_cntrl3.cache.demand_hits             0                       # Number of cache demand hits
system.ruby.l1_cntrl3.cache.demand_misses            0                       # Number of cache demand misses
system.ruby.l1_cntrl3.fully_busy_cycles             5                       # cycles for which number of transistions == max transitions
system.ruby.l1_cntrl3.fwdFrom.avg_buf_msgs     1.710009                       # Average number of messages in buffer
system.ruby.l1_cntrl3.fwdFrom.avg_stall_time  6651.975288                       # Average number of cycles messages are stalled in this MB
system.ruby.l1_cntrl3.mandatoryQueue.avg_buf_msgs     0.387138                       # Average number of messages in buffer
system.ruby.l1_cntrl3.mandatoryQueue.avg_stall_time  2002.563831                       # Average number of cycles messages are stalled in this MB
system.ruby.l1_cntrl3.reqTo.avg_buf_msgs     0.002526                       # Average number of messages in buffer
system.ruby.l1_cntrl3.reqTo.avg_stall_time   499.819071                       # Average number of cycles messages are stalled in this MB
system.ruby.l1_cntrl3.respFrom.avg_buf_msgs     0.001305                       # Average number of messages in buffer
system.ruby.l1_cntrl3.respFrom.avg_stall_time 16615.975623                       # Average number of cycles messages are stalled in this MB
system.ruby.l1_cntrl3.respTo.avg_buf_msgs     0.000004                       # Average number of messages in buffer
system.ruby.l1_cntrl3.respTo.avg_stall_time   543.231978                       # Average number of cycles messages are stalled in this MB
system.ruby.latency_hist_seqr::bucket_size            1                      
system.ruby.latency_hist_seqr::max_bucket            9                      
system.ruby.latency_hist_seqr::samples     6283285875                      
system.ruby.latency_hist_seqr            |  6283285875    100.00%    100.00% |           0      0.00%    100.00% |           0      0.00%    100.00% |           0      0.00%    100.00% |           0      0.00%    100.00% |           0      0.00%    100.00% |           0      0.00%    100.00% |           0      0.00%    100.00% |           0      0.00%    100.00% |           0      0.00%    100.00%
system.ruby.latency_hist_seqr::total       6283285875                      
system.ruby.miss_latency_hist_seqr::bucket_size            1                      
system.ruby.miss_latency_hist_seqr::max_bucket            9                      
system.ruby.miss_latency_hist_seqr::samples     25250236                      
system.ruby.miss_latency_hist_seqr       |    25250236    100.00%    100.00% |           0      0.00%    100.00% |           0      0.00%    100.00% |           0      0.00%    100.00% |           0      0.00%    100.00% |           0      0.00%    100.00% |           0      0.00%    100.00% |           0      0.00%    100.00% |           0      0.00%    100.00% |           0      0.00%    100.00%
system.ruby.miss_latency_hist_seqr::total     25250236                      
system.ruby.network.average_flit_latency    17.285122                      
system.ruby.network.average_flit_network_latency    12.420518                      
system.ruby.network.average_flit_queueing_latency     4.864604                      
system.ruby.network.average_flit_vnet_latency |   15.364074                       |    5.002342                       |    9.957004                       |         nan                       |         nan                       |         nan                       |         nan                       |         nan                      
system.ruby.network.average_flit_vqueue_latency |    6.065923                       |    6.000000                       |    2.619599                       |         nan                       |         nan                       |         nan                       |         nan                       |         nan                      
system.ruby.network.average_hops             1.000751                      
system.ruby.network.average_packet_latency    15.832801                      
system.ruby.network.average_packet_network_latency    11.850765                      
system.ruby.network.average_packet_queueing_latency     3.982036                      
system.ruby.network.average_packet_vnet_latency |   25.349187                       |    5.002342                       |    8.188937                       |         nan                       |         nan                       |         nan                       |         nan                       |         nan                      
system.ruby.network.average_packet_vqueue_latency |    6.061571                       |    6.000000                       |    1.928485                       |         nan                       |         nan                       |         nan                       |         nan                       |         nan                      
system.ruby.network.avg_link_utilization     0.159369                      
system.ruby.network.avg_vc_load          |    0.065563     41.14%     41.14% |    0.007476      4.69%     45.83% |    0.007324      4.60%     50.43% |    0.007318      4.59%     55.02% |    0.012330      7.74%     62.75% |    0.001375      0.86%     63.62% |    0.001371      0.86%     64.48% |    0.001370      0.86%     65.34% |    0.041140     25.81%     91.15% |    0.004894      3.07%     94.22% |    0.004619      2.90%     97.12% |    0.004588      2.88%    100.00% |           0      0.00%    100.00% |           0      0.00%    100.00% |           0      0.00%    100.00% |           0      0.00%    100.00% |           0      0.00%    100.00% |           0      0.00%    100.00% |           0      0.00%    100.00% |           0      0.00%    100.00% |           0      0.00%    100.00% |           0      0.00%    100.00% |           0      0.00%    100.00% |           0      0.00%    100.00% |           0      0.00%    100.00% |           0      0.00%    100.00% |           0      0.00%    100.00% |           0      0.00%    100.00% |           0      0.00%    100.00% |           0      0.00%    100.00% |           0      0.00%    100.00% |           0      0.00%    100.00%
system.ruby.network.avg_vc_load::total       0.159369                      
system.ruby.network.ext_in_link_utilization    230059343                      
system.ruby.network.ext_out_link_utilization    230059343                      
system.ruby.network.flit_network_latency |  1944708274                       |   118777930                       |   793969898                       |           0                       |           0                       |           0                       |           0                       |           0                      
system.ruby.network.flit_queueing_latency |   767794484                       |   142466791                       |   208886414                       |           0                       |           0                       |           0                       |           0                       |           0                      
system.ruby.network.flits_injected       |   126575036     55.02%     55.02% |    23744464     10.32%     65.34% |    79739843     34.66%    100.00% |           0      0.00%    100.00% |           0      0.00%    100.00% |           0      0.00%    100.00% |           0      0.00%    100.00% |           0      0.00%    100.00%
system.ruby.network.flits_injected::total    230059343                      
system.ruby.network.flits_received       |   126575036     55.02%     55.02% |    23744464     10.32%     65.34% |    79739843     34.66%    100.00% |           0      0.00%    100.00% |           0      0.00%    100.00% |           0      0.00%    100.00% |           0      0.00%    100.00% |           0      0.00%    100.00%
system.ruby.network.flits_received::total    230059343                      
system.ruby.network.int_link_utilization    230232046                      
system.ruby.network.packet_network_latency |   642266666                       |   118777930                       |   401179075                       |           0                       |           0                       |           0                       |           0                       |           0                      
system.ruby.network.packet_queueing_latency |   153580676                       |   142466791                       |    94477198                       |           0                       |           0                       |           0                       |           0                       |           0                      
system.ruby.network.packets_injected     |    25336776     25.83%     25.83% |    23744464     24.21%     50.05% |    48990375     49.95%    100.00% |           0      0.00%    100.00% |           0      0.00%    100.00% |           0      0.00%    100.00% |           0      0.00%    100.00% |           0      0.00%    100.00%
system.ruby.network.packets_injected::total     98071615                      
system.ruby.network.packets_received     |    25336776     25.83%     25.83% |    23744464     24.21%     50.05% |    48990375     49.95%    100.00% |           0      0.00%    100.00% |           0      0.00%    100.00% |           0      0.00%    100.00% |           0      0.00%    100.00% |           0      0.00%    100.00%
system.ruby.network.packets_received::total     98071615                      
system.ruby.network.routers0.buffer_reads    114777355                      
system.ruby.network.routers0.buffer_writes    114777355                      
system.ruby.network.routers0.crossbar_activity    114777355                      
system.ruby.network.routers0.sw_input_arbiter_activity    114967981                      
system.ruby.network.routers0.sw_output_arbiter_activity    114777355                      
system.ruby.network.routers1.buffer_reads    122306077                      
system.ruby.network.routers1.buffer_writes    122306077                      
system.ruby.network.routers1.crossbar_activity    122306077                      
system.ruby.network.routers1.sw_input_arbiter_activity    122405607                      
system.ruby.network.routers1.sw_output_arbiter_activity    122306077                      
system.ruby.network.routers2.buffer_reads    111926703                      
system.ruby.network.routers2.buffer_writes    111926703                      
system.ruby.network.routers2.crossbar_activity    111926703                      
system.ruby.network.routers2.sw_input_arbiter_activity    112037534                      
system.ruby.network.routers2.sw_output_arbiter_activity    111926703                      
system.ruby.network.routers3.buffer_reads    111281254                      
system.ruby.network.routers3.buffer_writes    111281254                      
system.ruby.network.routers3.crossbar_activity    111281254                      
system.ruby.network.routers3.sw_input_arbiter_activity    111378595                      
system.ruby.network.routers3.sw_output_arbiter_activity    111281254                      
system.ruby.outstanding_req_hist_seqr::bucket_size            1                      
system.ruby.outstanding_req_hist_seqr::max_bucket            9                      
system.ruby.outstanding_req_hist_seqr::samples   6283285875                      
system.ruby.outstanding_req_hist_seqr::mean     1.000805                      
system.ruby.outstanding_req_hist_seqr::gmean     1.000558                      
system.ruby.outstanding_req_hist_seqr::stdev     0.028361                      
system.ruby.outstanding_req_hist_seqr    |           0      0.00%      0.00% |  6278227765     99.92%     99.92% |     5058110      0.08%    100.00% |           0      0.00%    100.00% |           0      0.00%    100.00% |           0      0.00%    100.00% |           0      0.00%    100.00% |           0      0.00%    100.00% |           0      0.00%    100.00% |           0      0.00%    100.00%
system.ruby.outstanding_req_hist_seqr::total   6283285875                      
system.switch_cpus0.Branches                 96492923                       # Number of branches fetched
system.switch_cpus0.committedInsts          909250734                       # Number of instructions committed
system.switch_cpus0.committedOps           1571589153                       # Number of ops (including micro ops) committed
system.switch_cpus0.dtb.rdAccesses          185689115                       # TLB accesses on read requests
system.switch_cpus0.dtb.rdMisses               226454                       # TLB misses on read requests
system.switch_cpus0.dtb.wrAccesses           57532420                       # TLB accesses on write requests
system.switch_cpus0.dtb.wrMisses                40592                       # TLB misses on write requests
system.switch_cpus0.idle_fraction            0.145842                       # Percentage of idle cycles
system.switch_cpus0.itb.rdAccesses                  0                       # TLB accesses on read requests
system.switch_cpus0.itb.rdMisses                    0                       # TLB misses on read requests
system.switch_cpus0.itb.wrAccesses         1264209714                       # TLB accesses on write requests
system.switch_cpus0.itb.wrMisses                51390                       # TLB misses on write requests
system.switch_cpus0.kern.inst.arm                   0                       # number of arm instructions executed
system.switch_cpus0.kern.inst.quiesce               0                       # number of quiesce instructions executed
system.switch_cpus0.not_idle_fraction        0.854158                       # Percentage of non-idle cycles
system.switch_cpus0.numCycles              4331184156                       # number of cpu cycles simulated
system.switch_cpus0.numWorkItemsCompleted            0                       # number of work items this cpu completed
system.switch_cpus0.numWorkItemsStarted             0                       # number of work items this cpu started
system.switch_cpus0.num_busy_cycles      3699514882.604466                       # Number of busy cycles
system.switch_cpus0.num_cc_register_reads    836514168                       # number of times the CC registers were read
system.switch_cpus0.num_cc_register_writes    605921580                       # number of times the CC registers were written
system.switch_cpus0.num_conditional_control_insts     83253688                       # number of instructions that are conditional controls
system.switch_cpus0.num_fp_alu_accesses     352400425                       # Number of float alu accesses
system.switch_cpus0.num_fp_insts            352400425                       # number of float instructions
system.switch_cpus0.num_fp_register_reads    582679341                       # number of times the floating registers were read
system.switch_cpus0.num_fp_register_writes    317507046                       # number of times the floating registers were written
system.switch_cpus0.num_func_calls            3867479                       # number of times a function call or return occured
system.switch_cpus0.num_idle_cycles      631669273.395534                       # Number of idle cycles
system.switch_cpus0.num_int_alu_accesses   1309255982                       # Number of integer alu accesses
system.switch_cpus0.num_int_insts          1309255982                       # number of integer instructions
system.switch_cpus0.num_int_register_reads   2562309937                       # number of times the integer registers were read
system.switch_cpus0.num_int_register_writes   1135296840                       # number of times the integer registers were written
system.switch_cpus0.num_load_insts          184211399                       # Number of load instructions
system.switch_cpus0.num_mem_refs            241703445                       # number of memory refs
system.switch_cpus0.num_store_insts          57492046                       # Number of store instructions
system.switch_cpus0.num_vec_alu_accesses            0                       # Number of vector alu accesses
system.switch_cpus0.num_vec_insts                   0                       # number of vector instructions
system.switch_cpus0.num_vec_register_reads            0                       # number of times the vector registers were read
system.switch_cpus0.num_vec_register_writes            0                       # number of times the vector registers were written
system.switch_cpus0.op_class::No_OpClass      3121113      0.20%      0.20% # Class of executed instruction
system.switch_cpus0.op_class::IntAlu       1037582025     66.02%     66.22% # Class of executed instruction
system.switch_cpus0.op_class::IntMult        24972354      1.59%     67.81% # Class of executed instruction
system.switch_cpus0.op_class::IntDiv          8221975      0.52%     68.33% # Class of executed instruction
system.switch_cpus0.op_class::FloatAdd       20366899      1.30%     69.62% # Class of executed instruction
system.switch_cpus0.op_class::FloatCmp              0      0.00%     69.62% # Class of executed instruction
system.switch_cpus0.op_class::FloatCvt            816      0.00%     69.62% # Class of executed instruction
system.switch_cpus0.op_class::FloatMult             0      0.00%     69.62% # Class of executed instruction
system.switch_cpus0.op_class::FloatMultAcc            0      0.00%     69.62% # Class of executed instruction
system.switch_cpus0.op_class::FloatDiv              0      0.00%     69.62% # Class of executed instruction
system.switch_cpus0.op_class::FloatMisc             0      0.00%     69.62% # Class of executed instruction
system.switch_cpus0.op_class::FloatSqrt             0      0.00%     69.62% # Class of executed instruction
system.switch_cpus0.op_class::SimdAdd             728      0.00%     69.62% # Class of executed instruction
system.switch_cpus0.op_class::SimdAddAcc            0      0.00%     69.62% # Class of executed instruction
system.switch_cpus0.op_class::SimdAlu        88098124      5.61%     75.23% # Class of executed instruction
system.switch_cpus0.op_class::SimdCmp               0      0.00%     75.23% # Class of executed instruction
system.switch_cpus0.op_class::SimdCvt           74340      0.00%     75.23% # Class of executed instruction
system.switch_cpus0.op_class::SimdMisc       15437202      0.98%     76.22% # Class of executed instruction
system.switch_cpus0.op_class::SimdMult              0      0.00%     76.22% # Class of executed instruction
system.switch_cpus0.op_class::SimdMultAcc            0      0.00%     76.22% # Class of executed instruction
system.switch_cpus0.op_class::SimdShift         90517      0.01%     76.22% # Class of executed instruction
system.switch_cpus0.op_class::SimdShiftAcc            0      0.00%     76.22% # Class of executed instruction
system.switch_cpus0.op_class::SimdDiv               0      0.00%     76.22% # Class of executed instruction
system.switch_cpus0.op_class::SimdSqrt              0      0.00%     76.22% # Class of executed instruction
system.switch_cpus0.op_class::SimdFloatAdd     31951619      2.03%     78.26% # Class of executed instruction
system.switch_cpus0.op_class::SimdFloatAlu            0      0.00%     78.26% # Class of executed instruction
system.switch_cpus0.op_class::SimdFloatCmp         2820      0.00%     78.26% # Class of executed instruction
system.switch_cpus0.op_class::SimdFloatCvt     61282889      3.90%     82.16% # Class of executed instruction
system.switch_cpus0.op_class::SimdFloatDiv      3538793      0.23%     82.38% # Class of executed instruction
system.switch_cpus0.op_class::SimdFloatMisc            0      0.00%     82.38% # Class of executed instruction
system.switch_cpus0.op_class::SimdFloatMult     35221410      2.24%     84.62% # Class of executed instruction
system.switch_cpus0.op_class::SimdFloatMultAcc            0      0.00%     84.62% # Class of executed instruction
system.switch_cpus0.op_class::SimdFloatSqrt            0      0.00%     84.62% # Class of executed instruction
system.switch_cpus0.op_class::SimdReduceAdd            0      0.00%     84.62% # Class of executed instruction
system.switch_cpus0.op_class::SimdReduceAlu            0      0.00%     84.62% # Class of executed instruction
system.switch_cpus0.op_class::SimdReduceCmp            0      0.00%     84.62% # Class of executed instruction
system.switch_cpus0.op_class::SimdFloatReduceAdd            0      0.00%     84.62% # Class of executed instruction
system.switch_cpus0.op_class::SimdFloatReduceCmp            0      0.00%     84.62% # Class of executed instruction
system.switch_cpus0.op_class::SimdAes               0      0.00%     84.62% # Class of executed instruction
system.switch_cpus0.op_class::SimdAesMix            0      0.00%     84.62% # Class of executed instruction
[...]
system.mem_ctrls1.llc.tags.occ_percent::total     0.259086                       # Average percentage of cache occupancy
system.mem_ctrls1.llc.tags.occ_task_id_blocks::1024       103616                       # Occupied blocks per task id
system.mem_ctrls1.llc.tags.age_task_id_blocks_1024::0            5                       # Occupied blocks per task id
system.mem_ctrls1.llc.tags.age_task_id_blocks_1024::1            1                       # Occupied blocks per task id
system.mem_ctrls1.llc.tags.age_task_id_blocks_1024::2            2                       # Occupied blocks per task id
system.mem_ctrls1.llc.tags.age_task_id_blocks_1024::3          716                       # Occupied blocks per task id
system.mem_ctrls1.llc.tags.age_task_id_blocks_1024::4       102892                       # Occupied blocks per task id
system.mem_ctrls1.llc.tags.occ_task_id_percent::1024     0.395264                       # Percentage of cache occupancy per task id
system.mem_ctrls1.llc.tags.tag_accesses     131935216                       # Number of tag accesses
system.mem_ctrls1.llc.tags.data_accesses      8239475                       # Number of data accesses
system.mem_ctrls1.llc.tags.power_state.pwrStateResidencyTicks::UNDEFINED 101310427836001                       # Cumulative time (in ticks) in various power states
system.mem_ctrls1.rank1.actEnergy           118438320                       # Energy for activate commands per rank (pJ)
system.mem_ctrls1.rank1.preEnergy            62951460                       # Energy for precharge commands per rank (pJ)
system.mem_ctrls1.rank1.readEnergy          366938880                       # Energy for read commands per rank (pJ)
system.mem_ctrls1.rank1.writeEnergy                 0                       # Energy for write commands per rank (pJ)
system.mem_ctrls1.rank1.refreshEnergy    170973179520.000031                       # Energy for refresh commands per rank (pJ)
system.mem_ctrls1.rank1.actBackEnergy     63908782470                       # Energy for active background per rank (pJ)
system.mem_ctrls1.rank1.preBackEnergy    777883443360                       # Energy for precharge background per rank (pJ)
system.mem_ctrls1.rank1.actPowerDownEnergy            0                       # Energy for active power-down per rank (pJ)
system.mem_ctrls1.rank1.prePowerDownEnergy            0                       # Energy for precharge power-down per rank (pJ)
system.mem_ctrls1.rank1.selfRefreshEnergy            0                       # Energy for self refresh per rank (pJ)
system.mem_ctrls1.rank1.totalEnergy      1013313734010                       # Total energy per rank (pJ)
system.mem_ctrls1.rank1.averagePower       467.851072                       # Core power per rank (mW)
system.mem_ctrls1.rank1.totalIdleTime               0                       # Total Idle time Per DRAM Rank
system.mem_ctrls1.rank1.memoryStateTime::IDLE 2021706945504                       # Time in different power states
system.mem_ctrls1.rank1.memoryStateTime::REF  72323680000                       # Time in different power states
system.mem_ctrls1.rank1.memoryStateTime::SREF            0                       # Time in different power states
system.mem_ctrls1.rank1.memoryStateTime::PRE_PDN            0                       # Time in different power states
system.mem_ctrls1.rank1.memoryStateTime::ACT  71858895997                       # Time in different power states
system.mem_ctrls1.rank1.memoryStateTime::ACT_PDN            0                       # Time in different power states
system.mem_ctrls1.rank0.actEnergy           121394280                       # Energy for activate commands per rank (pJ)
system.mem_ctrls1.rank0.preEnergy            64518795                       # Energy for precharge commands per rank (pJ)
system.mem_ctrls1.rank0.readEnergy          372879360                       # Energy for read commands per rank (pJ)
system.mem_ctrls1.rank0.writeEnergy                 0                       # Energy for write commands per rank (pJ)
system.mem_ctrls1.rank0.refreshEnergy    170973179520.000031                       # Energy for refresh commands per rank (pJ)
system.mem_ctrls1.rank0.actBackEnergy     63876792930                       # Energy for active background per rank (pJ)
system.mem_ctrls1.rank0.preBackEnergy    777910540800                       # Energy for precharge background per rank (pJ)
system.mem_ctrls1.rank0.actPowerDownEnergy            0                       # Energy for active power-down per rank (pJ)
system.mem_ctrls1.rank0.prePowerDownEnergy            0                       # Energy for precharge power-down per rank (pJ)
system.mem_ctrls1.rank0.selfRefreshEnergy            0                       # Energy for self refresh per rank (pJ)
system.mem_ctrls1.rank0.totalEnergy      1013319305685                       # Total energy per rank (pJ)
system.mem_ctrls1.rank0.averagePower       467.853644                       # Core power per rank (mW)
system.mem_ctrls1.rank0.totalIdleTime               0                       # Total Idle time Per DRAM Rank
system.mem_ctrls1.rank0.memoryStateTime::IDLE 2021775413502                       # Time in different power states
system.mem_ctrls1.rank0.memoryStateTime::REF  72323680000                       # Time in different power states
system.mem_ctrls1.rank0.memoryStateTime::SREF            0                       # Time in different power states
system.mem_ctrls1.rank0.memoryStateTime::PRE_PDN            0                       # Time in different power states
system.mem_ctrls1.rank0.memoryStateTime::ACT  71790427999                       # Time in different power states
system.mem_ctrls1.rank0.memoryStateTime::ACT_PDN            0                       # Time in different power states
system.mem_ctrls1.power_state.pwrStateResidencyTicks::UNDEFINED 101310427836001                       # Cumulative time (in ticks) in various power states
system.cpu_voltage_domain.voltage                   1                       # Voltage in Volts
system.iobus.trans_dist::ReadReq                  782                       # Transaction distribution
system.iobus.trans_dist::ReadResp                 782                       # Transaction distribution
system.iobus.trans_dist::WriteReq               11321                       # Transaction distribution
system.iobus.trans_dist::WriteResp              11321                       # Transaction distribution
system.iobus.pkt_count_system.pc.south_bridge.io_apic.int_master::system.ruby.l1_cntrl1.sequencer.pio-slave-port           98                       # Packet count per connected master and slave (bytes)
system.iobus.pkt_count_system.pc.south_bridge.io_apic.int_master::total           98                       # Packet count per connected master and slave (bytes)
system.iobus.pkt_count_system.ruby.l1_cntrl0.sequencer.mem-master-port::system.pc.com_1.pio            2                       # Packet count per connected master and slave (bytes)
system.iobus.pkt_count_system.ruby.l1_cntrl0.sequencer.mem-master-port::system.ruby.l1_cntrl0.sequencer.pio-slave-port         5336                       # Packet count per connected master and slave (bytes)
system.iobus.pkt_count_system.ruby.l1_cntrl0.sequencer.mem-master-port::system.ruby.l1_cntrl1.sequencer.pio-slave-port          256                       # Packet count per connected master and slave (bytes)
system.iobus.pkt_count_system.ruby.l1_cntrl0.sequencer.mem-master-port::system.ruby.l1_cntrl2.sequencer.pio-slave-port           22                       # Packet count per connected master and slave (bytes)
system.iobus.pkt_count_system.ruby.l1_cntrl0.sequencer.mem-master-port::system.ruby.l1_cntrl3.sequencer.pio-slave-port            6                       # Packet count per connected master and slave (bytes)
system.iobus.pkt_count_system.ruby.l1_cntrl0.sequencer.mem-master-port::total         5622                       # Packet count per connected master and slave (bytes)
system.iobus.pkt_count_system.ruby.l1_cntrl1.sequencer.mem-master-port::system.pc.south_bridge.ide.pio         1094                       # Packet count per connected master and slave (bytes)
system.iobus.pkt_count_system.ruby.l1_cntrl1.sequencer.mem-master-port::system.pc.com_1.pio          182                       # Packet count per connected master and slave (bytes)
system.iobus.pkt_count_system.ruby.l1_cntrl1.sequencer.mem-master-port::system.ruby.l1_cntrl0.sequencer.pio-slave-port          124                       # Packet count per connected master and slave (bytes)
system.iobus.pkt_count_system.ruby.l1_cntrl1.sequencer.mem-master-port::system.ruby.l1_cntrl1.sequencer.pio-slave-port         5598                       # Packet count per connected master and slave (bytes)
system.iobus.pkt_count_system.ruby.l1_cntrl1.sequencer.mem-master-port::system.ruby.l1_cntrl2.sequencer.pio-slave-port           68                       # Packet count per connected master and slave (bytes)
system.iobus.pkt_count_system.ruby.l1_cntrl1.sequencer.mem-master-port::system.ruby.l1_cntrl3.sequencer.pio-slave-port           56                       # Packet count per connected master and slave (bytes)
system.iobus.pkt_count_system.ruby.l1_cntrl1.sequencer.mem-master-port::total         7122                       # Packet count per connected master and slave (bytes)
system.iobus.pkt_count_system.ruby.l1_cntrl2.sequencer.mem-master-port::system.pc.south_bridge.ide.pio           68                       # Packet count per connected master and slave (bytes)
system.iobus.pkt_count_system.ruby.l1_cntrl2.sequencer.mem-master-port::system.ruby.l1_cntrl0.sequencer.pio-slave-port           58                       # Packet count per connected master and slave (bytes)
system.iobus.pkt_count_system.ruby.l1_cntrl2.sequencer.mem-master-port::system.ruby.l1_cntrl1.sequencer.pio-slave-port          278                       # Packet count per connected master and slave (bytes)
system.iobus.pkt_count_system.ruby.l1_cntrl2.sequencer.mem-master-port::system.ruby.l1_cntrl2.sequencer.pio-slave-port         5294                       # Packet count per connected master and slave (bytes)
system.iobus.pkt_count_system.ruby.l1_cntrl2.sequencer.mem-master-port::system.ruby.l1_cntrl3.sequencer.pio-slave-port           50                       # Packet count per connected master and slave (bytes)
system.iobus.pkt_count_system.ruby.l1_cntrl2.sequencer.mem-master-port::total         5748                       # Packet count per connected master and slave (bytes)
system.iobus.pkt_count_system.ruby.l1_cntrl3.sequencer.mem-master-port::system.pc.south_bridge.ide.pio           34                       # Packet count per connected master and slave (bytes)
system.iobus.pkt_count_system.ruby.l1_cntrl3.sequencer.mem-master-port::system.ruby.l1_cntrl0.sequencer.pio-slave-port           20                       # Packet count per connected master and slave (bytes)
system.iobus.pkt_count_system.ruby.l1_cntrl3.sequencer.mem-master-port::system.ruby.l1_cntrl1.sequencer.pio-slave-port          262                       # Packet count per connected master and slave (bytes)
system.iobus.pkt_count_system.ruby.l1_cntrl3.sequencer.mem-master-port::system.ruby.l1_cntrl2.sequencer.pio-slave-port           24                       # Packet count per connected master and slave (bytes)
system.iobus.pkt_count_system.ruby.l1_cntrl3.sequencer.mem-master-port::system.ruby.l1_cntrl3.sequencer.pio-slave-port         5276                       # Packet count per connected master and slave (bytes)
system.iobus.pkt_count_system.ruby.l1_cntrl3.sequencer.mem-master-port::total         5616                       # Packet count per connected master and slave (bytes)
system.iobus.pkt_count::total                   24206                       # Packet count per connected master and slave (bytes)
system.iobus.pkt_size_system.pc.south_bridge.io_apic.int_master::system.ruby.l1_cntrl1.sequencer.pio-slave-port          196                       # Cumulative packet size per connected master and slave (bytes)
system.iobus.pkt_size_system.pc.south_bridge.io_apic.int_master::total          196                       # Cumulative packet size per connected master and slave (bytes)
system.iobus.pkt_size_system.ruby.l1_cntrl0.sequencer.mem-master-port::system.pc.com_1.pio            1                       # Cumulative packet size per connected master and slave (bytes)
system.iobus.pkt_size_system.ruby.l1_cntrl0.sequencer.mem-master-port::system.ruby.l1_cntrl0.sequencer.pio-slave-port        10672                       # Cumulative packet size per connected master and slave (bytes)
system.iobus.pkt_size_system.ruby.l1_cntrl0.sequencer.mem-master-port::system.ruby.l1_cntrl1.sequencer.pio-slave-port          512                       # Cumulative packet size per connected master and slave (bytes)
system.iobus.pkt_size_system.ruby.l1_cntrl0.sequencer.mem-master-port::system.ruby.l1_cntrl2.sequencer.pio-slave-port           44                       # Cumulative packet size per connected master and slave (bytes)
system.iobus.pkt_size_system.ruby.l1_cntrl0.sequencer.mem-master-port::system.ruby.l1_cntrl3.sequencer.pio-slave-port           12                       # Cumulative packet size per connected master and slave (bytes)
system.iobus.pkt_size_system.ruby.l1_cntrl0.sequencer.mem-master-port::total        11241                       # Cumulative packet size per connected master and slave (bytes)
system.iobus.pkt_size_system.ruby.l1_cntrl1.sequencer.mem-master-port::system.pc.south_bridge.ide.pio          616                       # Cumulative packet size per connected master and slave (bytes)
system.iobus.pkt_size_system.ruby.l1_cntrl1.sequencer.mem-master-port::system.pc.com_1.pio           91                       # Cumulative packet size per connected master and slave (bytes)
system.iobus.pkt_size_system.ruby.l1_cntrl1.sequencer.mem-master-port::system.ruby.l1_cntrl0.sequencer.pio-slave-port          248                       # Cumulative packet size per connected master and slave (bytes)
system.iobus.pkt_size_system.ruby.l1_cntrl1.sequencer.mem-master-port::system.ruby.l1_cntrl1.sequencer.pio-slave-port        11196                       # Cumulative packet size per connected master and slave (bytes)
system.iobus.pkt_size_system.ruby.l1_cntrl1.sequencer.mem-master-port::system.ruby.l1_cntrl2.sequencer.pio-slave-port          136                       # Cumulative packet size per connected master and slave (bytes)
system.iobus.pkt_size_system.ruby.l1_cntrl1.sequencer.mem-master-port::system.ruby.l1_cntrl3.sequencer.pio-slave-port          112                       # Cumulative packet size per connected master and slave (bytes)
system.iobus.pkt_size_system.ruby.l1_cntrl1.sequencer.mem-master-port::total        12399                       # Cumulative packet size per connected master and slave (bytes)
system.iobus.pkt_size_system.ruby.l1_cntrl2.sequencer.mem-master-port::system.pc.south_bridge.ide.pio           40                       # Cumulative packet size per connected master and slave (bytes)
system.iobus.pkt_size_system.ruby.l1_cntrl2.sequencer.mem-master-port::system.ruby.l1_cntrl0.sequencer.pio-slave-port          116                       # Cumulative packet size per connected master and slave (bytes)
system.iobus.pkt_size_system.ruby.l1_cntrl2.sequencer.mem-master-port::system.ruby.l1_cntrl1.sequencer.pio-slave-port          556                       # Cumulative packet size per connected master and slave (bytes)
system.iobus.pkt_size_system.ruby.l1_cntrl2.sequencer.mem-master-port::system.ruby.l1_cntrl2.sequencer.pio-slave-port        10588                       # Cumulative packet size per connected master and slave (bytes)
system.iobus.pkt_size_system.ruby.l1_cntrl2.sequencer.mem-master-port::system.ruby.l1_cntrl3.sequencer.pio-slave-port          100                       # Cumulative packet size per connected master and slave (bytes)
system.iobus.pkt_size_system.ruby.l1_cntrl2.sequencer.mem-master-port::total        11400                       # Cumulative packet size per connected master and slave (bytes)
system.iobus.pkt_size_system.ruby.l1_cntrl3.sequencer.mem-master-port::system.pc.south_bridge.ide.pio           20                       # Cumulative packet size per connected master and slave (bytes)
system.iobus.pkt_size_system.ruby.l1_cntrl3.sequencer.mem-master-port::system.ruby.l1_cntrl0.sequencer.pio-slave-port           40                       # Cumulative packet size per connected master and slave (bytes)
system.iobus.pkt_size_system.ruby.l1_cntrl3.sequencer.mem-master-port::system.ruby.l1_cntrl1.sequencer.pio-slave-port          524                       # Cumulative packet size per connected master and slave (bytes)
system.iobus.pkt_size_system.ruby.l1_cntrl3.sequencer.mem-master-port::system.ruby.l1_cntrl2.sequencer.pio-slave-port           48                       # Cumulative packet size per connected master and slave (bytes)
system.iobus.pkt_size_system.ruby.l1_cntrl3.sequencer.mem-master-port::system.ruby.l1_cntrl3.sequencer.pio-slave-port        10552                       # Cumulative packet size per connected master and slave (bytes)
system.iobus.pkt_size_system.ruby.l1_cntrl3.sequencer.mem-master-port::total        11184                       # Cumulative packet size per connected master and slave (bytes)
system.iobus.pkt_size::total                    46420                       # Cumulative packet size per connected master and slave (bytes)
system.iobus.reqLayer2.occupancy               991500                       # Layer occupancy (ticks)
system.iobus.reqLayer2.utilization                0.0                       # Layer utilization (%)
system.iobus.power_state.pwrStateResidencyTicks::UNDEFINED 101310427836001                       # Cumulative time (in ticks) in various power states
system.iobus.reqLayer19.occupancy             6337948                       # Layer occupancy (ticks)
system.iobus.reqLayer19.utilization               0.0                       # Layer utilization (%)
system.iobus.reqLayer17.occupancy             6490988                       # Layer occupancy (ticks)
system.iobus.reqLayer17.utilization               0.0                       # Layer utilization (%)
system.iobus.reqLayer12.occupancy              116500                       # Layer occupancy (ticks)
system.iobus.reqLayer12.utilization               0.0                       # Layer utilization (%)
system.iobus.reqLayer18.occupancy             7963342                       # Layer occupancy (ticks)
system.iobus.reqLayer18.utilization               0.0                       # Layer utilization (%)
system.iobus.respLayer9.occupancy             4272000                       # Layer occupancy (ticks)
system.iobus.respLayer9.utilization               0.0                       # Layer utilization (%)
system.iobus.respLayer5.occupancy             5291000                       # Layer occupancy (ticks)
system.iobus.respLayer5.utilization               0.0                       # Layer utilization (%)
system.iobus.respLayer7.occupancy             4347000                       # Layer occupancy (ticks)
system.iobus.respLayer7.utilization               0.0                       # Layer utilization (%)
system.iobus.respLayer0.occupancy               80474                       # Layer occupancy (ticks)
system.iobus.respLayer0.utilization               0.0                       # Layer utilization (%)
system.iobus.respLayer3.occupancy             4281000                       # Layer occupancy (ticks)
system.iobus.respLayer3.utilization               0.0                       # Layer utilization (%)
system.iobus.reqLayer20.occupancy             6328873                       # Layer occupancy (ticks)
system.iobus.reqLayer20.utilization               0.0                       # Layer utilization (%)

---------- End Simulation Statistics   ----------
