
---------- Begin Simulation Statistics ----------
final_tick                               103046666378001                       # Number of ticks from beginning of simulation (restored from checkpoints and never reset)
host_inst_rate                                3691431                       # Simulator instruction rate (inst/s)
host_mem_usage                                1747916                       # Number of bytes of host memory used
host_op_rate                                  3806040                       # Simulator op (including micro ops) rate (op/s)
host_seconds                                  1765.34                       # Real time elapsed on the host
host_tick_rate                              153480687                       # Simulator tick rate (ticks/s)
sim_freq                                 1000000000000                       # Frequency of simulated ticks
sim_insts                                  6516631528                       # Number of instructions simulated
sim_ops                                    6718956021                       # Number of ops (including micro ops) simulated
sim_seconds                                  0.270946                       # Number of seconds simulated
sim_ticks                                270945647001                       # Number of ticks simulated
system.cpu0.committedInsts                          0                       # Number of instructions committed
system.cpu0.dtb.rdAccesses                          0                       # TLB accesses on read requests
system.cpu0.dtb.rdMisses                            0                       # TLB misses on read requests
system.cpu0.dtb.wrAccesses                          0                       # TLB accesses on write requests
system.cpu0.dtb.wrMisses                            0                       # TLB misses on write requests
system.cpu0.itb.rdAccesses                          0                       # TLB accesses on read requests
system.cpu0.itb.rdMisses                            0                       # TLB misses on read requests
system.cpu0.itb.wrAccesses                          0                       # TLB accesses on write requests
system.cpu0.itb.wrMisses                            0                       # TLB misses on write requests
system.cpu0.kern.inst.arm                           0                       # number of arm instructions executed
system.cpu0.kern.inst.quiesce                       0                       # number of quiesce instructions executed
system.cpu0.numCoalescedMMIO                        0                       # number of coalesced memory mapped IO requests
system.cpu0.numCycles                               0                       # number of cpu cycles simulated
system.cpu0.numExitSignal                           0                       # exits due to signal delivery
system.cpu0.numHalt                                 0                       # number of VM exits due to wait for interrupt instructions
system.cpu0.numHypercalls                           0                       # number of hypercalls
system.cpu0.numIO                                   0                       # number of VM exits due to legacy IO
system.cpu0.numInterrupts                           0                       # number of interrupts delivered
system.cpu0.numMMIO                                 0                       # number of VM exits due to memory mapped IO
system.cpu0.numVMExits                              0                       # total number of KVM exits
system.cpu0.numVMHalfEntries                        0                       # number of KVM entries to finalize pending operations
system.cpu0.numWorkItemsCompleted                   0                       # number of work items this cpu completed
system.cpu0.numWorkItemsStarted                     0                       # number of work items this cpu started
system.cpu1.committedInsts                          0                       # Number of instructions committed
system.cpu1.dtb.rdAccesses                          0                       # TLB accesses on read requests
system.cpu1.dtb.rdMisses                            0                       # TLB misses on read requests
system.cpu1.dtb.wrAccesses                          0                       # TLB accesses on write requests
system.cpu1.dtb.wrMisses                            0                       # TLB misses on write requests
system.cpu1.itb.rdAccesses                          0                       # TLB accesses on read requests
system.cpu1.itb.rdMisses                            0                       # TLB misses on read requests
system.cpu1.itb.wrAccesses                          0                       # TLB accesses on write requests
system.cpu1.itb.wrMisses                            0                       # TLB misses on write requests
system.cpu1.kern.inst.arm                           0                       # number of arm instructions executed
system.cpu1.kern.inst.quiesce                       0                       # number of quiesce instructions executed
system.cpu1.numCoalescedMMIO                        0                       # number of coalesced memory mapped IO requests
system.cpu1.numCycles                               0                       # number of cpu cycles simulated
system.cpu1.numExitSignal                           0                       # exits due to signal delivery
system.cpu1.numHalt                                 0                       # number of VM exits due to wait for interrupt instructions
system.cpu1.numHypercalls                           0                       # number of hypercalls
system.cpu1.numIO                                   0                       # number of VM exits due to legacy IO
system.cpu1.numInterrupts                           0                       # number of interrupts delivered
system.cpu1.numMMIO                                 0                       # number of VM exits due to memory mapped IO
system.cpu1.numVMExits                              0                       # total number of KVM exits
system.cpu1.numVMHalfEntries                        0                       # number of KVM entries to finalize pending operations
system.cpu1.numWorkItemsCompleted                   0                       # number of work items this cpu completed
system.cpu1.numWorkItemsStarted                     0                       # number of work items this cpu started
system.cpu2.committedInsts                          0                       # Number of instructions committed
system.cpu2.dtb.rdAccesses                          0                       # TLB accesses on read requests
system.cpu2.dtb.rdMisses                            0                       # TLB misses on read requests
system.cpu2.dtb.wrAccesses                          0                       # TLB accesses on write requests
system.cpu2.dtb.wrMisses                            0                       # TLB misses on write requests
system.cpu2.itb.rdAccesses                          0                       # TLB accesses on read requests
system.cpu2.itb.rdMisses                            0                       # TLB misses on read requests
system.cpu2.itb.wrAccesses                          0                       # TLB accesses on write requests
system.cpu2.itb.wrMisses                            0                       # TLB misses on write requests
system.cpu2.kern.inst.arm                           0                       # number of arm instructions executed
system.cpu2.kern.inst.quiesce                       0                       # number of quiesce instructions executed
system.cpu2.numCoalescedMMIO                        0                       # number of coalesced memory mapped IO requests
system.cpu2.numCycles                               0                       # number of cpu cycles simulated
system.cpu2.numExitSignal                           0                       # exits due to signal delivery
system.cpu2.numHalt                                 0                       # number of VM exits due to wait for interrupt instructions
system.cpu2.numHypercalls                           0                       # number of hypercalls
system.cpu2.numIO                                   0                       # number of VM exits due to legacy IO
system.cpu2.numInterrupts                           0                       # number of interrupts delivered
system.cpu2.numMMIO                                 0                       # number of VM exits due to memory mapped IO
system.cpu2.numVMExits                              0                       # total number of KVM exits
system.cpu2.numVMHalfEntries                        0                       # number of KVM entries to finalize pending operations
system.cpu2.numWorkItemsCompleted                   0                       # number of work items this cpu completed
system.cpu2.numWorkItemsStarted                     0                       # number of work items this cpu started
system.cpu3.committedInsts                          0                       # Number of instructions committed
system.cpu3.dtb.rdAccesses                          0                       # TLB accesses on read requests
system.cpu3.dtb.rdMisses                            0                       # TLB misses on read requests
system.cpu3.dtb.wrAccesses                          0                       # TLB accesses on write requests
system.cpu3.dtb.wrMisses                            0                       # TLB misses on write requests
system.cpu3.itb.rdAccesses                          0                       # TLB accesses on read requests
system.cpu3.itb.rdMisses                            0                       # TLB misses on read requests
system.cpu3.itb.wrAccesses                          0                       # TLB accesses on write requests
system.cpu3.itb.wrMisses                            0                       # TLB misses on write requests
system.cpu3.kern.inst.arm                           0                       # number of arm instructions executed
system.cpu3.kern.inst.quiesce                       0                       # number of quiesce instructions executed
system.cpu3.numCoalescedMMIO                        0                       # number of coalesced memory mapped IO requests
system.cpu3.numCycles                               0                       # number of cpu cycles simulated
system.cpu3.numExitSignal                           0                       # exits due to signal delivery
system.cpu3.numHalt                                 0                       # number of VM exits due to wait for interrupt instructions
system.cpu3.numHypercalls                           0                       # number of hypercalls
system.cpu3.numIO                                   0                       # number of VM exits due to legacy IO
system.cpu3.numInterrupts                           0                       # number of interrupts delivered
system.cpu3.numMMIO                                 0                       # number of VM exits due to memory mapped IO
system.cpu3.numVMExits                              0                       # total number of KVM exits
system.cpu3.numVMHalfEntries                        0                       # number of KVM entries to finalize pending operations
system.cpu3.numWorkItemsCompleted                   0                       # number of work items this cpu completed
system.cpu3.numWorkItemsStarted                     0                       # number of work items this cpu started
system.pc.south_bridge.ide.disks.dma_read_bytes            0                       # Number of bytes transfered via DMA reads (not PRD).
system.pc.south_bridge.ide.disks.dma_read_full_pages            0                       # Number of full page size DMA reads (not PRD).
system.pc.south_bridge.ide.disks.dma_read_txs            0                       # Number of DMA read transactions (not PRD).
system.pc.south_bridge.ide.disks.dma_write_bytes       131072                       # Number of bytes transfered via DMA writes.
system.pc.south_bridge.ide.disks.dma_write_full_pages           32                       # Number of full page size DMA writes.
system.pc.south_bridge.ide.disks.dma_write_txs           32                       # Number of DMA write transactions.
system.ruby.DMA_Controller.I.allocI_load |           4    100.00%    100.00% |           0      0.00%    100.00%
system.ruby.DMA_Controller.I.allocI_load::total            4                      
system.ruby.DMA_Controller.I.allocI_store |        2048    100.00%    100.00% |           0      0.00%    100.00%
system.ruby.DMA_Controller.I.allocI_store::total         2048                      
system.ruby.DMA_Controller.I.deallocfwdfrom_in |        1092    100.00%    100.00% |           0      0.00%    100.00%
system.ruby.DMA_Controller.I.deallocfwdfrom_in::total         1092                      
system.ruby.DMA_Controller.M.allocTBE    |        1096    100.00%    100.00% |           0      0.00%    100.00%
system.ruby.DMA_Controller.M.allocTBE::total         1096                      
system.ruby.DMA_Controller.M.externalstoreMrespfrom_in |        2048    100.00%    100.00% |           0      0.00%    100.00%
system.ruby.DMA_Controller.M.externalstoreMrespfrom_in::total         2048                      
system.ruby.DMA_Controller.M_evict.Stallmandatory_in |       16299    100.00%    100.00% |           0      0.00%    100.00%
system.ruby.DMA_Controller.M_evict.Stallmandatory_in::total        16299                      
system.ruby.DMA_Controller.S.SloadSEvent |          28    100.00%    100.00% |           0      0.00%    100.00%
system.ruby.DMA_Controller.S.SloadSEvent::total           28                      
system.ruby.DMA_Controller.S.allocTBE    |           4    100.00%    100.00% |           0      0.00%    100.00%
system.ruby.DMA_Controller.S.allocTBE::total            4                      
system.ruby.DMA_Controller.S.deallocTBE  |           6    100.00%    100.00% |           0      0.00%    100.00%
system.ruby.DMA_Controller.S.deallocTBE::total            6                      
system.ruby.DMA_Controller.S.externalloadSrespfrom_in |           4    100.00%    100.00% |           0      0.00%    100.00%
system.ruby.DMA_Controller.S.externalloadSrespfrom_in::total            4                      
system.ruby.DMA_Controller.S_evict.Stallmandatory_in |           5    100.00%    100.00% |           0      0.00%    100.00%
system.ruby.DMA_Controller.S_evict.Stallmandatory_in::total            5                      
system.ruby.DMA_Controller.SloadSEvent   |          28    100.00%    100.00% |           0      0.00%    100.00%
system.ruby.DMA_Controller.SloadSEvent::total           28                      
system.ruby.DMA_Controller.Stallmandatory_in |       16304    100.00%    100.00% |           0      0.00%    100.00%
system.ruby.DMA_Controller.Stallmandatory_in::total        16304                      
system.ruby.DMA_Controller.allocI_load   |           4    100.00%    100.00% |           0      0.00%    100.00%
system.ruby.DMA_Controller.allocI_load::total            4                      
system.ruby.DMA_Controller.allocI_store  |        2048    100.00%    100.00% |           0      0.00%    100.00%
system.ruby.DMA_Controller.allocI_store::total         2048                      
system.ruby.DMA_Controller.allocTBE      |        1100    100.00%    100.00% |           0      0.00%    100.00%
system.ruby.DMA_Controller.allocTBE::total         1100                      
system.ruby.DMA_Controller.deallocTBE    |           6    100.00%    100.00% |           0      0.00%    100.00%
system.ruby.DMA_Controller.deallocTBE::total            6                      
system.ruby.DMA_Controller.deallocfwdfrom_in |        1092    100.00%    100.00% |           0      0.00%    100.00%
system.ruby.DMA_Controller.deallocfwdfrom_in::total         1092                      
system.ruby.DMA_Controller.externalloadSrespfrom_in |           4    100.00%    100.00% |           0      0.00%    100.00%
system.ruby.DMA_Controller.externalloadSrespfrom_in::total            4                      
system.ruby.DMA_Controller.externalstoreMrespfrom_in |        2048    100.00%    100.00% |           0      0.00%    100.00%
system.ruby.DMA_Controller.externalstoreMrespfrom_in::total         2048                      
system.ruby.Directory_Controller.I.allocTBE |     1666195     24.21%     24.21% |     1870353     27.18%     51.39% |     1681177     24.43%     75.82% |     1664096     24.18%    100.00%
system.ruby.Directory_Controller.I.allocTBE::total      6881821                      
system.ruby.Directory_Controller.I.deallocTBE |     1665382     24.21%     24.21% |     1869530     27.18%     51.39% |     1680383     24.43%     75.82% |     1663287     24.18%    100.00%
system.ruby.Directory_Controller.I.deallocTBE::total      6878582                      
system.ruby.Directory_Controller.I_GetML1C1C1_0.Stallreqto_in |           0      0.00%      0.00% |           1    100.00%    100.00% |           0      0.00%    100.00% |           0      0.00%    100.00%
system.ruby.Directory_Controller.I_GetML1C1C1_0.Stallreqto_in::total            1                      
system.ruby.Directory_Controller.I_GetSL1C1C1_0.Stallreqto_in |         339      3.11%      3.11% |        9406     86.32%     89.43% |         860      7.89%     97.32% |         292      2.68%    100.00%
system.ruby.Directory_Controller.I_GetSL1C1C1_0.Stallreqto_in::total        10897                      
system.ruby.Directory_Controller.M.allocTBE |      640333     24.85%     24.85% |      660222     25.62%     50.47% |      640028     24.84%     75.31% |      636199     24.69%    100.00%
system.ruby.Directory_Controller.M.allocTBE::total      2576782                      
system.ruby.Directory_Controller.M.deallocTBE |      640693     24.85%     24.85% |      660602     25.62%     50.47% |      640409     24.84%     75.31% |      636574     24.69%    100.00%
system.ruby.Directory_Controller.M.deallocTBE::total      2578278                      
system.ruby.Directory_Controller.M_GetM.Progress |        4770     24.88%     24.88% |        4902     25.57%     50.45% |        4812     25.10%     75.54% |        4689     24.46%    100.00%
system.ruby.Directory_Controller.M_GetM.Progress::total        19173                      
system.ruby.Directory_Controller.M_GetM.Stallreqto_in |           0      0.00%      0.00% |           3     60.00%     60.00% |           0      0.00%     60.00% |           2     40.00%    100.00%
system.ruby.Directory_Controller.M_GetM.Stallreqto_in::total            5                      
system.ruby.Directory_Controller.M_GetS.Progress |        1076     31.08%     31.08% |         758     21.89%     52.98% |         864     24.96%     77.93% |         764     22.07%    100.00%
system.ruby.Directory_Controller.M_GetS.Progress::total         3462                      
system.ruby.Directory_Controller.M_GetS.Stallreqto_in |          14     48.28%     48.28% |           0      0.00%     48.28% |           5     17.24%     65.52% |          10     34.48%    100.00%
system.ruby.Directory_Controller.M_GetS.Stallreqto_in::total           29                      
system.ruby.Directory_Controller.M_GetS_WBL1C1C1_0.Stallreqto_in |          56     23.63%     23.63% |          23      9.70%     33.33% |         133     56.12%     89.45% |          25     10.55%    100.00%
system.ruby.Directory_Controller.M_GetS_WBL1C1C1_0.Stallreqto_in::total          237                      
system.ruby.Directory_Controller.Progress |        6105     26.59%     26.59% |        5680     24.74%     51.33% |        5693     24.80%     76.12% |        5482     23.88%    100.00%
system.ruby.Directory_Controller.Progress::total        22960                      
system.ruby.Directory_Controller.S.allocTBE |     1999430     21.23%     21.23% |     3008805     31.94%     53.17% |     2477105     26.30%     79.47% |     1933594     20.53%    100.00%
system.ruby.Directory_Controller.S.allocTBE::total      9418934                      
system.ruby.Directory_Controller.S.deallocTBE |     1999883     21.23%     21.23% |     3009247     31.94%     53.17% |     2477518     26.30%     79.47% |     1934028     20.53%    100.00%
system.ruby.Directory_Controller.S.deallocTBE::total      9420676                      
system.ruby.Directory_Controller.S_GetM.Progress |         259     79.69%     79.69% |          20      6.15%     85.85% |          17      5.23%     91.08% |          29      8.92%    100.00%
system.ruby.Directory_Controller.S_GetM.Progress::total          325                      
system.ruby.Directory_Controller.S_GetM.Stallreqto_in |          12     41.38%     41.38% |           9     31.03%     72.41% |           5     17.24%     89.66% |           3     10.34%    100.00%
system.ruby.Directory_Controller.S_GetM.Stallreqto_in::total           29                      
system.ruby.Directory_Controller.S_GetM.allocTBE |         918     31.54%     31.54% |         588     20.20%     51.73% |         769     26.42%     78.15% |         636     21.85%    100.00%
system.ruby.Directory_Controller.S_GetM.allocTBE::total         2911                      
system.ruby.Directory_Controller.S_GetM.deallocTBE |         918     31.54%     31.54% |         588     20.20%     51.73% |         769     26.42%     78.15% |         636     21.85%    100.00%
system.ruby.Directory_Controller.S_GetM.deallocTBE::total         2911                      
system.ruby.Directory_Controller.S_GetML1C1C1_0.Stallreqto_in |           6     35.29%     35.29% |           4     23.53%     58.82% |           2     11.76%     70.59% |           5     29.41%    100.00%
system.ruby.Directory_Controller.S_GetML1C1C1_0.Stallreqto_in::total           17                      
system.ruby.Directory_Controller.S_GetSL1C1C1_0.Stallreqto_in |        1337      2.36%      2.36% |       36766     64.89%     67.24% |       17636     31.12%     98.37% |         924      1.63%    100.00%
system.ruby.Directory_Controller.S_GetSL1C1C1_0.Stallreqto_in::total        56663                      
system.ruby.Directory_Controller.Stallreqto_in |        1764      2.60%      2.60% |       46212     68.08%     70.68% |       18641     27.46%     98.14% |        1261      1.86%    100.00%
system.ruby.Directory_Controller.Stallreqto_in::total        67878                      
system.ruby.Directory_Controller.allocTBE |     4306876     22.81%     22.81% |     5539968     29.34%     52.15% |     4799079     25.42%     77.57% |     4234525     22.43%    100.00%
system.ruby.Directory_Controller.allocTBE::total     18880448                      
system.ruby.Directory_Controller.deallocTBE |     4306876     22.81%     22.81% |     5539967     29.34%     52.15% |     4799079     25.42%     77.57% |     4234525     22.43%    100.00%
system.ruby.Directory_Controller.deallocTBE::total     18880447                      
system.ruby.IFETCH.hit_latency_hist_seqr::bucket_size            1                      
system.ruby.IFETCH.hit_latency_hist_seqr::max_bucket            9                      
system.ruby.IFETCH.hit_latency_hist_seqr::samples    385667340                      
system.ruby.IFETCH.hit_latency_hist_seqr |   385667340    100.00%    100.00% |           0      0.00%    100.00% |           0      0.00%    100.00% |           0      0.00%    100.00% |           0      0.00%    100.00% |           0      0.00%    100.00% |           0      0.00%    100.00% |           0      0.00%    100.00% |           0      0.00%    100.00% |           0      0.00%    100.00%
system.ruby.IFETCH.hit_latency_hist_seqr::total    385667340                      
system.ruby.IFETCH.latency_hist_seqr::bucket_size            1                      
system.ruby.IFETCH.latency_hist_seqr::max_bucket            9                      
system.ruby.IFETCH.latency_hist_seqr::samples    386921321                      
system.ruby.IFETCH.latency_hist_seqr     |   386921321    100.00%    100.00% |           0      0.00%    100.00% |           0      0.00%    100.00% |           0      0.00%    100.00% |           0      0.00%    100.00% |           0      0.00%    100.00% |           0      0.00%    100.00% |           0      0.00%    100.00% |           0      0.00%    100.00% |           0      0.00%    100.00%
system.ruby.IFETCH.latency_hist_seqr::total    386921321                      
system.ruby.IFETCH.miss_latency_hist_seqr::bucket_size            1                      
system.ruby.IFETCH.miss_latency_hist_seqr::max_bucket            9                      
system.ruby.IFETCH.miss_latency_hist_seqr::samples      1253981                      
system.ruby.IFETCH.miss_latency_hist_seqr |     1253981    100.00%    100.00% |           0      0.00%    100.00% |           0      0.00%    100.00% |           0      0.00%    100.00% |           0      0.00%    100.00% |           0      0.00%    100.00% |           0      0.00%    100.00% |           0      0.00%    100.00% |           0      0.00%    100.00% |           0      0.00%    100.00%
system.ruby.IFETCH.miss_latency_hist_seqr::total      1253981                      
system.ruby.L1Cache_Controller.I.allocI_load |     1729515     24.90%     24.90% |     1761591     25.37%     50.27% |     1708645     24.60%     74.88% |     1744780     25.12%    100.00%
system.ruby.L1Cache_Controller.I.allocI_load::total      6944531                      
system.ruby.L1Cache_Controller.I.allocI_store |      603522     24.78%     24.78% |      623379     25.60%     50.38% |      598636     24.58%     74.95% |      609993     25.05%    100.00%
system.ruby.L1Cache_Controller.I.allocI_store::total      2435530                      
system.ruby.L1Cache_Controller.I.deallocfwdfrom_in |     2332017     24.87%     24.87% |     2383970     25.43%     50.30% |     2306286     24.60%     74.90% |     2353759     25.10%    100.00%
system.ruby.L1Cache_Controller.I.deallocfwdfrom_in::total      9376032                      
system.ruby.L1Cache_Controller.I_store.Progress |         468     46.43%     46.43% |         191     18.95%     65.38% |         166     16.47%     81.85% |         183     18.15%    100.00%
system.ruby.L1Cache_Controller.I_store.Progress::total         1008                      
system.ruby.L1Cache_Controller.I_store.Stallfwdfrom_in |           1      5.56%      5.56% |           5     27.78%     33.33% |           7     38.89%     72.22% |           5     27.78%    100.00%
system.ruby.L1Cache_Controller.I_store.Stallfwdfrom_in::total           18                      
system.ruby.L1Cache_Controller.M.MloadMEvent |     5349886     25.30%     25.30% |     5255326     24.85%     50.15% |     5275862     24.95%     75.09% |     5266908     24.91%    100.00%
system.ruby.L1Cache_Controller.M.MloadMEvent::total     21147982                      
system.ruby.L1Cache_Controller.M.MstoreMEvent |     6658395     25.34%     25.34% |     6525669     24.83%     50.17% |     6545854     24.91%     75.08% |     6549903     24.92%    100.00%
system.ruby.L1Cache_Controller.M.MstoreMEvent::total     26279821                      
system.ruby.L1Cache_Controller.M.allocTBE |      639839     24.84%     24.84% |      659816     25.62%     50.46% |      632372     24.55%     75.01% |      643656     24.99%    100.00%
system.ruby.L1Cache_Controller.M.allocTBE::total      2575683                      
system.ruby.L1Cache_Controller.M.externalstoreMrespfrom_in |      640013     24.84%     24.84% |      659926     25.62%     50.46% |      632487     24.55%     75.01% |      643801     24.99%    100.00%
system.ruby.L1Cache_Controller.M.externalstoreMrespfrom_in::total      2576227                      
system.ruby.L1Cache_Controller.M_evict.Stallmandatory_in |         807     28.52%     28.52% |         729     25.76%     54.28% |         682     24.10%     78.37% |         612     21.63%    100.00%
system.ruby.L1Cache_Controller.M_evict.Stallmandatory_in::total         2830                      
system.ruby.L1Cache_Controller.M_evict_x_I.Progress |           0      0.00%      0.00% |           3    100.00%    100.00% |           0      0.00%    100.00% |           0      0.00%    100.00%
system.ruby.L1Cache_Controller.M_evict_x_I.Progress::total            3                      
system.ruby.L1Cache_Controller.M_evict_x_I.Stallmandatory_in |           0      0.00%      0.00% |          12    100.00%    100.00% |           0      0.00%    100.00% |           0      0.00%    100.00%
system.ruby.L1Cache_Controller.M_evict_x_I.Stallmandatory_in::total           12                      
system.ruby.L1Cache_Controller.MloadMEvent |     5349886     25.30%     25.30% |     5255326     24.85%     50.15% |     5275862     24.95%     75.09% |     5266908     24.91%    100.00%
system.ruby.L1Cache_Controller.MloadMEvent::total     21147982                      
system.ruby.L1Cache_Controller.MstoreMEvent |     6658395     25.34%     25.34% |     6525669     24.83%     50.17% |     6545854     24.91%     75.08% |     6549903     24.92%    100.00%
system.ruby.L1Cache_Controller.MstoreMEvent::total     26279821                      
system.ruby.L1Cache_Controller.Progress  |       37703     26.19%     26.19% |       37258     25.88%     52.08% |       34478     23.95%     76.03% |       34506     23.97%    100.00%
system.ruby.L1Cache_Controller.Progress::total       143945                      
system.ruby.L1Cache_Controller.S.SloadSEvent |   112507365     25.05%     25.05% |   112094885     24.96%     50.01% |   112173539     24.97%     74.98% |   112369432     25.02%    100.00%
system.ruby.L1Cache_Controller.S.SloadSEvent::total    449145221                      
system.ruby.L1Cache_Controller.S.allocTBE |     1730133     24.91%     24.91% |     1761413     25.36%     50.28% |     1708377     24.60%     74.88% |     1744580     25.12%    100.00%
system.ruby.L1Cache_Controller.S.allocTBE::total      6944503                      
system.ruby.L1Cache_Controller.S.deallocTBE |        1464     42.36%     42.36% |         712     20.60%     62.96% |         612     17.71%     80.67% |         668     19.33%    100.00%
system.ruby.L1Cache_Controller.S.deallocTBE::total         3456                      
system.ruby.L1Cache_Controller.S.externalloadSrespfrom_in |     1729515     24.90%     24.90% |     1761591     25.37%     50.27% |     1708645     24.60%     74.88% |     1744780     25.12%    100.00%
system.ruby.L1Cache_Controller.S.externalloadSrespfrom_in::total      6944531                      
system.ruby.L1Cache_Controller.S_evict.Stallmandatory_in |         661     26.38%     26.38% |         636     25.38%     51.76% |         642     25.62%     77.37% |         567     22.63%    100.00%
system.ruby.L1Cache_Controller.S_evict.Stallmandatory_in::total         2506                      
system.ruby.L1Cache_Controller.S_store.Progress |       37235     26.05%     26.05% |       37064     25.93%     51.98% |       34312     24.01%     75.99% |       34323     24.01%    100.00%
system.ruby.L1Cache_Controller.S_store.Progress::total       142934                      
system.ruby.L1Cache_Controller.S_store.Stallfwdfrom_in |           0      0.00%      0.00% |           2     66.67%     66.67% |           1     33.33%    100.00% |           0      0.00%    100.00%
system.ruby.L1Cache_Controller.S_store.Stallfwdfrom_in::total            3                      
system.ruby.L1Cache_Controller.SloadSEvent |   112507365     25.05%     25.05% |   112094885     24.96%     50.01% |   112173539     24.97%     74.98% |   112369432     25.02%    100.00%
system.ruby.L1Cache_Controller.SloadSEvent::total    449145221                      
system.ruby.L1Cache_Controller.Stallfwdfrom_in |           1      4.76%      4.76% |           7     33.33%     38.10% |           8     38.10%     76.19% |           5     23.81%    100.00%
system.ruby.L1Cache_Controller.Stallfwdfrom_in::total           21                      
system.ruby.L1Cache_Controller.Stallmandatory_in |        1468     27.45%     27.45% |        1377     25.75%     53.20% |        1324     24.76%     77.95% |        1179     22.05%    100.00%
system.ruby.L1Cache_Controller.Stallmandatory_in::total         5348                      
system.ruby.L1Cache_Controller.allocI_load |     1729515     24.90%     24.90% |     1761591     25.37%     50.27% |     1708645     24.60%     74.88% |     1744780     25.12%    100.00%
system.ruby.L1Cache_Controller.allocI_load::total      6944531                      
system.ruby.L1Cache_Controller.allocI_store |      603522     24.78%     24.78% |      623379     25.60%     50.38% |      598636     24.58%     74.95% |      609993     25.05%    100.00%
system.ruby.L1Cache_Controller.allocI_store::total      2435530                      
system.ruby.L1Cache_Controller.allocTBE  |     2369972     24.89%     24.89% |     2421229     25.43%     50.33% |     2340749     24.59%     74.91% |     2388236     25.09%    100.00%
system.ruby.L1Cache_Controller.allocTBE::total      9520186                      
system.ruby.L1Cache_Controller.deallocTBE |        1464     42.36%     42.36% |         712     20.60%     62.96% |         612     17.71%     80.67% |         668     19.33%    100.00%
system.ruby.L1Cache_Controller.deallocTBE::total         3456                      
system.ruby.L1Cache_Controller.deallocfwdfrom_in |     2332017     24.87%     24.87% |     2383970     25.43%     50.30% |     2306286     24.60%     74.90% |     2353759     25.10%    100.00%
system.ruby.L1Cache_Controller.deallocfwdfrom_in::total      9376032                      
system.ruby.L1Cache_Controller.externalloadSrespfrom_in |     1729515     24.90%     24.90% |     1761591     25.37%     50.27% |     1708645     24.60%     74.88% |     1744780     25.12%    100.00%
system.ruby.L1Cache_Controller.externalloadSrespfrom_in::total      6944531                      
system.ruby.L1Cache_Controller.externalstoreMrespfrom_in |      640013     24.84%     24.84% |      659926     25.62%     50.46% |      632487     24.55%     75.01% |      643801     24.99%    100.00%
system.ruby.L1Cache_Controller.externalstoreMrespfrom_in::total      2576227                      
system.ruby.LD.hit_latency_hist_seqr::bucket_size            1                      
system.ruby.LD.hit_latency_hist_seqr::max_bucket            9                      
system.ruby.LD.hit_latency_hist_seqr::samples     84625863                      
system.ruby.LD.hit_latency_hist_seqr     |    84625863    100.00%    100.00% |           0      0.00%    100.00% |           0      0.00%    100.00% |           0      0.00%    100.00% |           0      0.00%    100.00% |           0      0.00%    100.00% |           0      0.00%    100.00% |           0      0.00%    100.00% |           0      0.00%    100.00% |           0      0.00%    100.00%
system.ruby.LD.hit_latency_hist_seqr::total     84625863                      
system.ruby.LD.latency_hist_seqr::bucket_size            1                      
system.ruby.LD.latency_hist_seqr::max_bucket            9                      
system.ruby.LD.latency_hist_seqr::samples     90316413                      
system.ruby.LD.latency_hist_seqr         |    90316413    100.00%    100.00% |           0      0.00%    100.00% |           0      0.00%    100.00% |           0      0.00%    100.00% |           0      0.00%    100.00% |           0      0.00%    100.00% |           0      0.00%    100.00% |           0      0.00%    100.00% |           0      0.00%    100.00% |           0      0.00%    100.00%
system.ruby.LD.latency_hist_seqr::total      90316413                      
system.ruby.LD.miss_latency_hist_seqr::bucket_size            1                      
system.ruby.LD.miss_latency_hist_seqr::max_bucket            9                      
system.ruby.LD.miss_latency_hist_seqr::samples      5690550                      
system.ruby.LD.miss_latency_hist_seqr    |     5690550    100.00%    100.00% |           0      0.00%    100.00% |           0      0.00%    100.00% |           0      0.00%    100.00% |           0      0.00%    100.00% |           0      0.00%    100.00% |           0      0.00%    100.00% |           0      0.00%    100.00% |           0      0.00%    100.00% |           0      0.00%    100.00%
system.ruby.LD.miss_latency_hist_seqr::total      5690550                      
system.ruby.Locked_RMW_Read.hit_latency_hist_seqr::bucket_size            1                      
system.ruby.Locked_RMW_Read.hit_latency_hist_seqr::max_bucket            9                      
system.ruby.Locked_RMW_Read.hit_latency_hist_seqr::samples      2653020                      
system.ruby.Locked_RMW_Read.hit_latency_hist_seqr |     2653020    100.00%    100.00% |           0      0.00%    100.00% |           0      0.00%    100.00% |           0      0.00%    100.00% |           0      0.00%    100.00% |           0      0.00%    100.00% |           0      0.00%    100.00% |           0      0.00%    100.00% |           0      0.00%    100.00% |           0      0.00%    100.00%
system.ruby.Locked_RMW_Read.hit_latency_hist_seqr::total      2653020                      
system.ruby.Locked_RMW_Read.latency_hist_seqr::bucket_size            1                      
system.ruby.Locked_RMW_Read.latency_hist_seqr::max_bucket            9                      
system.ruby.Locked_RMW_Read.latency_hist_seqr::samples      5025110                      
system.ruby.Locked_RMW_Read.latency_hist_seqr |     5025110    100.00%    100.00% |           0      0.00%    100.00% |           0      0.00%    100.00% |           0      0.00%    100.00% |           0      0.00%    100.00% |           0      0.00%    100.00% |           0      0.00%    100.00% |           0      0.00%    100.00% |           0      0.00%    100.00% |           0      0.00%    100.00%
system.ruby.Locked_RMW_Read.latency_hist_seqr::total      5025110                      
system.ruby.Locked_RMW_Read.miss_latency_hist_seqr::bucket_size            1                      
system.ruby.Locked_RMW_Read.miss_latency_hist_seqr::max_bucket            9                      
system.ruby.Locked_RMW_Read.miss_latency_hist_seqr::samples      2372090                      
system.ruby.Locked_RMW_Read.miss_latency_hist_seqr |     2372090    100.00%    100.00% |           0      0.00%    100.00% |           0      0.00%    100.00% |           0      0.00%    100.00% |           0      0.00%    100.00% |           0      0.00%    100.00% |           0      0.00%    100.00% |           0      0.00%    100.00% |           0      0.00%    100.00% |           0      0.00%    100.00%
system.ruby.Locked_RMW_Read.miss_latency_hist_seqr::total      2372090                      
system.ruby.Locked_RMW_Write.hit_latency_hist_seqr::bucket_size            1                      
system.ruby.Locked_RMW_Write.hit_latency_hist_seqr::max_bucket            9                      
system.ruby.Locked_RMW_Write.hit_latency_hist_seqr::samples      5025110                      
system.ruby.Locked_RMW_Write.hit_latency_hist_seqr |     5025110    100.00%    100.00% |           0      0.00%    100.00% |           0      0.00%    100.00% |           0      0.00%    100.00% |           0      0.00%    100.00% |           0      0.00%    100.00% |           0      0.00%    100.00% |           0      0.00%    100.00% |           0      0.00%    100.00% |           0      0.00%    100.00%
system.ruby.Locked_RMW_Write.hit_latency_hist_seqr::total      5025110                      
system.ruby.Locked_RMW_Write.latency_hist_seqr::bucket_size            1                      
system.ruby.Locked_RMW_Write.latency_hist_seqr::max_bucket            9                      
system.ruby.Locked_RMW_Write.latency_hist_seqr::samples      5025110                      
system.ruby.Locked_RMW_Write.latency_hist_seqr |     5025110    100.00%    100.00% |           0      0.00%    100.00% |           0      0.00%    100.00% |           0      0.00%    100.00% |           0      0.00%    100.00% |           0      0.00%    100.00% |           0      0.00%    100.00% |           0      0.00%    100.00% |           0      0.00%    100.00% |           0      0.00%    100.00%
system.ruby.Locked_RMW_Write.latency_hist_seqr::total      5025110                      
system.ruby.RMW_Read.hit_latency_hist_seqr::bucket_size            1                      
system.ruby.RMW_Read.hit_latency_hist_seqr::max_bucket            9                      
system.ruby.RMW_Read.hit_latency_hist_seqr::samples       125294                      
system.ruby.RMW_Read.hit_latency_hist_seqr |      125294    100.00%    100.00% |           0      0.00%    100.00% |           0      0.00%    100.00% |           0      0.00%    100.00% |           0      0.00%    100.00% |           0      0.00%    100.00% |           0      0.00%    100.00% |           0      0.00%    100.00% |           0      0.00%    100.00% |           0      0.00%    100.00%
system.ruby.RMW_Read.hit_latency_hist_seqr::total       125294                      
system.ruby.RMW_Read.latency_hist_seqr::bucket_size            1                      
system.ruby.RMW_Read.latency_hist_seqr::max_bucket            9                      
system.ruby.RMW_Read.latency_hist_seqr::samples       142019                      
system.ruby.RMW_Read.latency_hist_seqr   |      142019    100.00%    100.00% |           0      0.00%    100.00% |           0      0.00%    100.00% |           0      0.00%    100.00% |           0      0.00%    100.00% |           0      0.00%    100.00% |           0      0.00%    100.00% |           0      0.00%    100.00% |           0      0.00%    100.00% |           0      0.00%    100.00%
system.ruby.RMW_Read.latency_hist_seqr::total       142019                      
system.ruby.RMW_Read.miss_latency_hist_seqr::bucket_size            1                      
system.ruby.RMW_Read.miss_latency_hist_seqr::max_bucket            9                      
system.ruby.RMW_Read.miss_latency_hist_seqr::samples        16725                      
system.ruby.RMW_Read.miss_latency_hist_seqr |       16725    100.00%    100.00% |           0      0.00%    100.00% |           0      0.00%    100.00% |           0      0.00%    100.00% |           0      0.00%    100.00% |           0      0.00%    100.00% |           0      0.00%    100.00% |           0      0.00%    100.00% |           0      0.00%    100.00% |           0      0.00%    100.00%
system.ruby.RMW_Read.miss_latency_hist_seqr::total        16725                      
system.ruby.ST.hit_latency_hist_seqr::bucket_size            1                      
system.ruby.ST.hit_latency_hist_seqr::max_bucket            9                      
system.ruby.ST.hit_latency_hist_seqr::samples     18476397                      
system.ruby.ST.hit_latency_hist_seqr     |    18476397    100.00%    100.00% |           0      0.00%    100.00% |           0      0.00%    100.00% |           0      0.00%    100.00% |           0      0.00%    100.00% |           0      0.00%    100.00% |           0      0.00%    100.00% |           0      0.00%    100.00% |           0      0.00%    100.00% |           0      0.00%    100.00%
system.ruby.ST.hit_latency_hist_seqr::total     18476397                      
system.ruby.ST.latency_hist_seqr::bucket_size            1                      
system.ruby.ST.latency_hist_seqr::max_bucket            9                      
system.ruby.ST.latency_hist_seqr::samples     18663809                      
system.ruby.ST.latency_hist_seqr         |    18663809    100.00%    100.00% |           0      0.00%    100.00% |           0      0.00%    100.00% |           0      0.00%    100.00% |           0      0.00%    100.00% |           0      0.00%    100.00% |           0      0.00%    100.00% |           0      0.00%    100.00% |           0      0.00%    100.00% |           0      0.00%    100.00%
system.ruby.ST.latency_hist_seqr::total      18663809                      
system.ruby.ST.miss_latency_hist_seqr::bucket_size            1                      
system.ruby.ST.miss_latency_hist_seqr::max_bucket            9                      
system.ruby.ST.miss_latency_hist_seqr::samples       187412                      
system.ruby.ST.miss_latency_hist_seqr    |      187412    100.00%    100.00% |           0      0.00%    100.00% |           0      0.00%    100.00% |           0      0.00%    100.00% |           0      0.00%    100.00% |           0      0.00%    100.00% |           0      0.00%    100.00% |           0      0.00%    100.00% |           0      0.00%    100.00% |           0      0.00%    100.00%
system.ruby.ST.miss_latency_hist_seqr::total       187412                      
system.ruby.dir_cntrl0.fwdFrom.avg_buf_msgs     0.023690                       # Average number of messages in buffer
system.ruby.dir_cntrl0.fwdFrom.avg_stall_time  2999.894409                       # Average number of cycles messages are stalled in this MB
system.ruby.dir_cntrl0.reqTo.avg_buf_msgs     0.007979                       # Average number of messages in buffer
system.ruby.dir_cntrl0.reqTo.avg_stall_time  5415.002666                       # Average number of cycles messages are stalled in this MB
system.ruby.dir_cntrl0.requestToMemory.avg_buf_msgs     0.005172                       # Average number of messages in buffer
system.ruby.dir_cntrl0.requestToMemory.avg_stall_time   499.999990                       # Average number of cycles messages are stalled in this MB
system.ruby.dir_cntrl0.respFrom.avg_buf_msgs     0.024022                       # Average number of messages in buffer
system.ruby.dir_cntrl0.respFrom.avg_stall_time  3000.803044                       # Average number of cycles messages are stalled in this MB
system.ruby.dir_cntrl0.respTo.avg_buf_msgs     0.000013                       # Average number of messages in buffer
system.ruby.dir_cntrl0.respTo.avg_stall_time  5331.652408                       # Average number of cycles messages are stalled in this MB
system.ruby.dir_cntrl0.responseFromMemory.avg_buf_msgs     0.005191                       # Average number of messages in buffer
system.ruby.dir_cntrl0.responseFromMemory.avg_stall_time   499.999835                       # Average number of cycles messages are stalled in this MB
system.ruby.dir_cntrl1.fwdFrom.avg_buf_msgs     0.030487                       # Average number of messages in buffer
system.ruby.dir_cntrl1.fwdFrom.avg_stall_time  2999.867383                       # Average number of cycles messages are stalled in this MB
system.ruby.dir_cntrl1.reqTo.avg_buf_msgs     0.011075                       # Average number of messages in buffer
system.ruby.dir_cntrl1.reqTo.avg_stall_time  5180.030766                       # Average number of cycles messages are stalled in this MB
system.ruby.dir_cntrl1.requestToMemory.avg_buf_msgs     0.006352                       # Average number of messages in buffer
system.ruby.dir_cntrl1.requestToMemory.avg_stall_time   499.999798                       # Average number of cycles messages are stalled in this MB
system.ruby.dir_cntrl1.respFrom.avg_buf_msgs     0.030874                       # Average number of messages in buffer
system.ruby.dir_cntrl1.respFrom.avg_stall_time  3000.649116                       # Average number of cycles messages are stalled in this MB
system.ruby.dir_cntrl1.respTo.avg_buf_msgs     0.000012                       # Average number of messages in buffer
system.ruby.dir_cntrl1.respTo.avg_stall_time  5347.945701                       # Average number of cycles messages are stalled in this MB
system.ruby.dir_cntrl1.responseFromMemory.avg_buf_msgs     0.006380                       # Average number of messages in buffer
system.ruby.dir_cntrl1.responseFromMemory.avg_stall_time   499.999643                       # Average number of cycles messages are stalled in this MB
system.ruby.dir_cntrl2.fwdFrom.avg_buf_msgs     0.026397                       # Average number of messages in buffer
system.ruby.dir_cntrl2.fwdFrom.avg_stall_time  2999.844974                       # Average number of cycles messages are stalled in this MB
system.ruby.dir_cntrl2.reqTo.avg_buf_msgs     0.009199                       # Average number of messages in buffer
system.ruby.dir_cntrl2.reqTo.avg_stall_time  5273.785709                       # Average number of cycles messages are stalled in this MB
system.ruby.dir_cntrl2.requestToMemory.avg_buf_msgs     0.005629                       # Average number of messages in buffer
system.ruby.dir_cntrl2.requestToMemory.avg_stall_time   499.998997                       # Average number of cycles messages are stalled in this MB
system.ruby.dir_cntrl2.respFrom.avg_buf_msgs     0.026797                       # Average number of messages in buffer
system.ruby.dir_cntrl2.respFrom.avg_stall_time  3001.749039                       # Average number of cycles messages are stalled in this MB
system.ruby.dir_cntrl2.respTo.avg_buf_msgs     0.000012                       # Average number of messages in buffer
system.ruby.dir_cntrl2.respTo.avg_stall_time  5200.893308                       # Average number of cycles messages are stalled in this MB
system.ruby.dir_cntrl2.responseFromMemory.avg_buf_msgs     0.005651                       # Average number of messages in buffer
system.ruby.dir_cntrl2.responseFromMemory.avg_stall_time   499.998842                       # Average number of cycles messages are stalled in this MB
system.ruby.dir_cntrl3.fwdFrom.avg_buf_msgs     0.023288                       # Average number of messages in buffer
system.ruby.dir_cntrl3.fwdFrom.avg_stall_time  2999.860810                       # Average number of cycles messages are stalled in this MB
system.ruby.dir_cntrl3.reqTo.avg_buf_msgs     0.007836                       # Average number of messages in buffer
system.ruby.dir_cntrl3.reqTo.avg_stall_time  5421.778090                       # Average number of cycles messages are stalled in this MB
system.ruby.dir_cntrl3.requestToMemory.avg_buf_msgs     0.005098                       # Average number of messages in buffer
system.ruby.dir_cntrl3.requestToMemory.avg_stall_time   499.999992                       # Average number of cycles messages are stalled in this MB
system.ruby.dir_cntrl3.respFrom.avg_buf_msgs     0.023659                       # Average number of messages in buffer
system.ruby.dir_cntrl3.respFrom.avg_stall_time  3001.861328                       # Average number of cycles messages are stalled in this MB
system.ruby.dir_cntrl3.respTo.avg_buf_msgs     0.000011                       # Average number of messages in buffer
system.ruby.dir_cntrl3.respTo.avg_stall_time  5335.010239                       # Average number of cycles messages are stalled in this MB
system.ruby.dir_cntrl3.responseFromMemory.avg_buf_msgs     0.005116                       # Average number of messages in buffer
system.ruby.dir_cntrl3.responseFromMemory.avg_stall_time   499.999837                       # Average number of cycles messages are stalled in this MB
system.ruby.dma_cntrl0.cache.demand_accesses            0                       # Number of cache demand accesses
system.ruby.dma_cntrl0.cache.demand_hits            0                       # Number of cache demand hits
system.ruby.dma_cntrl0.cache.demand_misses            0                       # Number of cache demand misses
system.ruby.dma_cntrl0.fully_busy_cycles         3022                       # cycles for which number of transistions == max transitions
system.ruby.dma_cntrl0.fwdFrom.avg_buf_msgs     0.000002                       # Average number of messages in buffer
system.ruby.dma_cntrl0.fwdFrom.avg_stall_time  4038.807252                       # Average number of cycles messages are stalled in this MB
system.ruby.dma_cntrl0.mandatoryQueue.avg_buf_msgs     0.000370                       # Average number of messages in buffer
system.ruby.dma_cntrl0.mandatoryQueue.avg_stall_time 90188.879063                       # Average number of cycles messages are stalled in this MB
system.ruby.dma_cntrl0.reqTo.avg_buf_msgs     0.000592                       # Average number of messages in buffer
system.ruby.dma_cntrl0.reqTo.avg_stall_time  6732.204797                       # Average number of cycles messages are stalled in this MB
system.ruby.dma_cntrl0.respFrom.avg_buf_msgs     0.000004                       # Average number of messages in buffer
system.ruby.dma_cntrl0.respFrom.avg_stall_time 78894.210710                       # Average number of cycles messages are stalled in this MB
system.ruby.dma_cntrl0.respTo.avg_buf_msgs     0.000000                       # Average number of messages in buffer
system.ruby.dma_cntrl0.respTo.avg_stall_time   538.164103                       # Average number of cycles messages are stalled in this MB
system.ruby.hit_latency_hist_seqr::bucket_size            1                      
system.ruby.hit_latency_hist_seqr::max_bucket            9                      
system.ruby.hit_latency_hist_seqr::samples    496573024                      
system.ruby.hit_latency_hist_seqr        |   496573024    100.00%    100.00% |           0      0.00%    100.00% |           0      0.00%    100.00% |           0      0.00%    100.00% |           0      0.00%    100.00% |           0      0.00%    100.00% |           0      0.00%    100.00% |           0      0.00%    100.00% |           0      0.00%    100.00% |           0      0.00%    100.00%
system.ruby.hit_latency_hist_seqr::total    496573024                      
system.ruby.io_controller.cache.demand_accesses            0                       # Number of cache demand accesses
system.ruby.io_controller.cache.demand_hits            0                       # Number of cache demand hits
system.ruby.io_controller.cache.demand_misses            0                       # Number of cache demand misses
system.ruby.l1_cntrl0.cache.demand_accesses            0                       # Number of cache demand accesses
system.ruby.l1_cntrl0.cache.demand_hits             0                       # Number of cache demand hits
system.ruby.l1_cntrl0.cache.demand_misses            0                       # Number of cache demand misses
system.ruby.l1_cntrl0.fully_busy_cycles             1                       # cycles for which number of transistions == max transitions
system.ruby.l1_cntrl0.fwdFrom.avg_buf_msgs     0.004306                       # Average number of messages in buffer
system.ruby.l1_cntrl0.fwdFrom.avg_stall_time  6493.703366                       # Average number of cycles messages are stalled in this MB
system.ruby.l1_cntrl0.mandatoryQueue.avg_buf_msgs     0.356581                       # Average number of messages in buffer
system.ruby.l1_cntrl0.mandatoryQueue.avg_stall_time  6160.548234                       # Average number of cycles messages are stalled in this MB
system.ruby.l1_cntrl0.reqTo.avg_buf_msgs     0.008666                       # Average number of messages in buffer
system.ruby.l1_cntrl0.reqTo.avg_stall_time   499.999997                       # Average number of cycles messages are stalled in this MB
system.ruby.l1_cntrl0.respFrom.avg_buf_msgs     0.004375                       # Average number of messages in buffer
system.ruby.l1_cntrl0.respFrom.avg_stall_time 16514.185755                       # Average number of cycles messages are stalled in this MB
system.ruby.l1_cntrl0.respTo.avg_buf_msgs     0.000038                       # Average number of messages in buffer
system.ruby.l1_cntrl0.respTo.avg_stall_time   998.803247                       # Average number of cycles messages are stalled in this MB
system.ruby.l1_cntrl1.cache.demand_accesses            0                       # Number of cache demand accesses
system.ruby.l1_cntrl1.cache.demand_hits             0                       # Number of cache demand hits
system.ruby.l1_cntrl1.cache.demand_misses            0                       # Number of cache demand misses
system.ruby.l1_cntrl1.fwdFrom.avg_buf_msgs     0.005005                       # Average number of messages in buffer
system.ruby.l1_cntrl1.fwdFrom.avg_stall_time  6458.620017                       # Average number of cycles messages are stalled in this MB
system.ruby.l1_cntrl1.mandatoryQueue.avg_buf_msgs     0.357620                       # Average number of messages in buffer
system.ruby.l1_cntrl1.mandatoryQueue.avg_stall_time  6255.175817                       # Average number of cycles messages are stalled in this MB
system.ruby.l1_cntrl1.reqTo.avg_buf_msgs     0.008858                       # Average number of messages in buffer
system.ruby.l1_cntrl1.reqTo.avg_stall_time   499.999997                       # Average number of cycles messages are stalled in this MB
system.ruby.l1_cntrl1.respFrom.avg_buf_msgs     0.004470                       # Average number of messages in buffer
system.ruby.l1_cntrl1.respFrom.avg_stall_time 16454.548813                       # Average number of cycles messages are stalled in this MB
system.ruby.l1_cntrl1.respTo.avg_buf_msgs     0.000035                       # Average number of messages in buffer
system.ruby.l1_cntrl1.respTo.avg_stall_time   998.384971                       # Average number of cycles messages are stalled in this MB
system.ruby.l1_cntrl2.cache.demand_accesses            0                       # Number of cache demand accesses
system.ruby.l1_cntrl2.cache.demand_hits             0                       # Number of cache demand hits
system.ruby.l1_cntrl2.cache.demand_misses            0                       # Number of cache demand misses
system.ruby.l1_cntrl2.fwdFrom.avg_buf_msgs     0.004257                       # Average number of messages in buffer
system.ruby.l1_cntrl2.fwdFrom.avg_stall_time  6531.582867                       # Average number of cycles messages are stalled in this MB
system.ruby.l1_cntrl2.mandatoryQueue.avg_buf_msgs     0.355006                       # Average number of messages in buffer
system.ruby.l1_cntrl2.mandatoryQueue.avg_stall_time  6134.762864                       # Average number of cycles messages are stalled in this MB
system.ruby.l1_cntrl2.reqTo.avg_buf_msgs     0.008565                       # Average number of messages in buffer
system.ruby.l1_cntrl2.reqTo.avg_stall_time   499.513515                       # Average number of cycles messages are stalled in this MB
system.ruby.l1_cntrl2.respFrom.avg_buf_msgs     0.004321                       # Average number of messages in buffer
system.ruby.l1_cntrl2.respFrom.avg_stall_time 16542.793483                       # Average number of cycles messages are stalled in this MB
system.ruby.l1_cntrl2.respTo.avg_buf_msgs     0.000036                       # Average number of messages in buffer
system.ruby.l1_cntrl2.respTo.avg_stall_time   998.855469                       # Average number of cycles messages are stalled in this MB
system.ruby.l1_cntrl3.cache.demand_accesses            0                       # Number of cache demand accesses
system.ruby.l1_cntrl3.cache.demand_hits             0                       # Number of cache demand hits
system.ruby.l1_cntrl3.cache.demand_misses            0                       # Number of cache demand misses
system.ruby.l1_cntrl3.fwdFrom.avg_buf_msgs     1.324497                       # Average number of messages in buffer
system.ruby.l1_cntrl3.fwdFrom.avg_stall_time  6509.379543                       # Average number of cycles messages are stalled in this MB
system.ruby.l1_cntrl3.mandatoryQueue.avg_buf_msgs     0.357175                       # Average number of messages in buffer
system.ruby.l1_cntrl3.mandatoryQueue.avg_stall_time  6207.970081                       # Average number of cycles messages are stalled in this MB
system.ruby.l1_cntrl3.reqTo.avg_buf_msgs     0.008742                       # Average number of messages in buffer
system.ruby.l1_cntrl3.reqTo.avg_stall_time   499.999997                       # Average number of cycles messages are stalled in this MB
system.ruby.l1_cntrl3.respFrom.avg_buf_msgs     0.004409                       # Average number of messages in buffer
system.ruby.l1_cntrl3.respFrom.avg_stall_time 16525.824028                       # Average number of cycles messages are stalled in this MB
system.ruby.l1_cntrl3.respTo.avg_buf_msgs     0.000033                       # Average number of messages in buffer
system.ruby.l1_cntrl3.respTo.avg_stall_time   999.563232                       # Average number of cycles messages are stalled in this MB
system.ruby.latency_hist_seqr::bucket_size            1                      
system.ruby.latency_hist_seqr::max_bucket            9                      
system.ruby.latency_hist_seqr::samples      506093782                      
system.ruby.latency_hist_seqr            |   506093782    100.00%    100.00% |           0      0.00%    100.00% |           0      0.00%    100.00% |           0      0.00%    100.00% |           0      0.00%    100.00% |           0      0.00%    100.00% |           0      0.00%    100.00% |           0      0.00%    100.00% |           0      0.00%    100.00% |           0      0.00%    100.00%
system.ruby.latency_hist_seqr::total        506093782                      
system.ruby.miss_latency_hist_seqr::bucket_size            1                      
system.ruby.miss_latency_hist_seqr::max_bucket            9                      
system.ruby.miss_latency_hist_seqr::samples      9520758                      
system.ruby.miss_latency_hist_seqr       |     9520758    100.00%    100.00% |           0      0.00%    100.00% |           0      0.00%    100.00% |           0      0.00%    100.00% |           0      0.00%    100.00% |           0      0.00%    100.00% |           0      0.00%    100.00% |           0      0.00%    100.00% |           0      0.00%    100.00% |           0      0.00%    100.00%
system.ruby.miss_latency_hist_seqr::total      9520758                      
system.ruby.network.average_flit_latency    16.351547                      
system.ruby.network.average_flit_network_latency    12.033648                      
system.ruby.network.average_flit_queueing_latency     4.317899                      
system.ruby.network.average_flit_vnet_latency |   15.028151                       |    5.000723                       |    9.396139                      
system.ruby.network.average_flit_vqueue_latency |    5.993693                       |    6.000008                       |    1.030550                      
system.ruby.network.average_hops             0.999072                      
system.ruby.network.average_packet_latency    14.915874                      
system.ruby.network.average_packet_network_latency    11.407666                      
system.ruby.network.average_packet_queueing_latency     3.508208                      
system.ruby.network.average_packet_vnet_latency |   25.001216                       |    5.000723                       |    7.713142                      
system.ruby.network.average_packet_vqueue_latency |    5.984845                       |    6.000008                       |    1.016823                      
system.ruby.network.avg_link_utilization     0.476692                      
system.ruby.network.avg_vc_load          |    0.196709     41.27%     41.27% |    0.023129      4.85%     46.12% |    0.022032      4.62%     50.74% |    0.021959      4.61%     55.35% |    0.038901      8.16%     63.51% |    0.004360      0.91%     64.42% |    0.004328      0.91%     65.33% |    0.004328      0.91%     66.24% |    0.118197     24.80%     91.03% |    0.015870      3.33%     94.36% |    0.013454      2.82%     97.18% |    0.013425      2.82%    100.00%
system.ruby.network.avg_vc_load::total       0.476692                      
system.ruby.network.ext_in_link_utilization     86131727                      
system.ruby.network.ext_out_link_utilization     86131727                      
system.ruby.network.flit_network_latency |   716196678                       |    46909763                       |   273372450                      
system.ruby.network.flit_queueing_latency |   285641473                       |    56283653                       |    29982939                      
system.ruby.network.flits_injected       |    47657005     55.33%     55.33% |     9380597     10.89%     66.22% |    29094125     33.78%    100.00%
system.ruby.network.flits_injected::total     86131727                      
system.ruby.network.flits_received       |    47657005     55.33%     55.33% |     9380597     10.89%     66.22% |    29094125     33.78%    100.00%
system.ruby.network.flits_received::total     86131727                      
system.ruby.network.int_link_utilization     86051756                      
system.ruby.network.packet_network_latency |   238809537                       |    46909763                       |   145605131                      
system.ruby.network.packet_queueing_latency |    57166741                       |    56283653                       |    19195115                      
system.ruby.network.packets_injected     |     9551917     25.26%     25.26% |     9380597     24.81%     50.07% |    18877537     49.93%    100.00%
system.ruby.network.packets_injected::total     37810051                      
system.ruby.network.packets_received     |     9551917     25.26%     25.26% |     9380597     24.81%     50.07% |    18877537     49.93%    100.00%
system.ruby.network.packets_received::total     37810051                      
system.ruby.network.routers0.buffer_reads     42301553                      
system.ruby.network.routers0.buffer_writes     42301553                      
system.ruby.network.routers0.crossbar_activity     42301553                      
system.ruby.network.routers0.sw_input_arbiter_activity     42408806                      
system.ruby.network.routers0.sw_output_arbiter_activity     42301553                      
system.ruby.network.routers1.buffer_reads     45351635                      
system.ruby.network.routers1.buffer_writes     45351635                      
system.ruby.network.routers1.crossbar_activity     45351635                      
system.ruby.network.routers1.sw_input_arbiter_activity     45472851                      
system.ruby.network.routers1.sw_output_arbiter_activity     45351635                      
system.ruby.network.routers2.buffer_reads     42576974                      
system.ruby.network.routers2.buffer_writes     42576974                      
system.ruby.network.routers2.crossbar_activity     42576974                      
system.ruby.network.routers2.sw_input_arbiter_activity     42684263                      
system.ruby.network.routers2.sw_output_arbiter_activity     42576974                      
system.ruby.network.routers3.buffer_reads     41953321                      
system.ruby.network.routers3.buffer_writes     41953321                      
system.ruby.network.routers3.crossbar_activity     41953321                      
system.ruby.network.routers3.sw_input_arbiter_activity     42054868                      
system.ruby.network.routers3.sw_output_arbiter_activity     41953321                      
system.ruby.outstanding_req_hist_seqr::bucket_size            1                      
system.ruby.outstanding_req_hist_seqr::max_bucket            9                      
system.ruby.outstanding_req_hist_seqr::samples    506093783                      
system.ruby.outstanding_req_hist_seqr::mean     1.000000                      
system.ruby.outstanding_req_hist_seqr::gmean     1.000000                      
system.ruby.outstanding_req_hist_seqr::stdev     0.000183                      
system.ruby.outstanding_req_hist_seqr    |           0      0.00%      0.00% |   506093766    100.00%    100.00% |          17      0.00%    100.00% |           0      0.00%    100.00% |           0      0.00%    100.00% |           0      0.00%    100.00% |           0      0.00%    100.00% |           0      0.00%    100.00% |           0      0.00%    100.00% |           0      0.00%    100.00%
system.ruby.outstanding_req_hist_seqr::total    506093783                      
system.switch_cpus0.Branches                  5981459                       # Number of branches fetched
system.switch_cpus0.committedInsts           68947114                       # Number of instructions committed
system.switch_cpus0.committedOps            119936794                       # Number of ops (including micro ops) committed
system.switch_cpus0.dtb.rdAccesses           20405390                       # TLB accesses on read requests
system.switch_cpus0.dtb.rdMisses              1177647                       # TLB misses on read requests
system.switch_cpus0.dtb.wrAccesses            6006414                       # TLB accesses on write requests
system.switch_cpus0.dtb.wrMisses                 1186                       # TLB misses on write requests
system.switch_cpus0.idle_fraction            0.016527                       # Percentage of idle cycles
system.switch_cpus0.itb.rdAccesses                  0                       # TLB accesses on read requests
system.switch_cpus0.itb.rdMisses                    0                       # TLB misses on read requests
system.switch_cpus0.itb.wrAccesses           96929922                       # TLB accesses on write requests
system.switch_cpus0.itb.wrMisses                 3107                       # TLB misses on write requests
system.switch_cpus0.kern.inst.arm                   0                       # number of arm instructions executed
system.switch_cpus0.kern.inst.quiesce               0                       # number of quiesce instructions executed
system.switch_cpus0.not_idle_fraction        0.983473                       # Percentage of non-idle cycles
system.switch_cpus0.numCycles               541891063                       # number of cpu cycles simulated
system.switch_cpus0.numWorkItemsCompleted            0                       # number of work items this cpu completed
system.switch_cpus0.numWorkItemsStarted             0                       # number of work items this cpu started
system.switch_cpus0.num_busy_cycles      532935380.817739                       # Number of busy cycles
system.switch_cpus0.num_cc_register_reads     41891984                       # number of times the CC registers were read
system.switch_cpus0.num_cc_register_writes     38047899                       # number of times the CC registers were written
system.switch_cpus0.num_conditional_control_insts      4398807                       # number of instructions that are conditional controls
system.switch_cpus0.num_fp_alu_accesses      39482502                       # Number of float alu accesses
system.switch_cpus0.num_fp_insts             39482502                       # number of float instructions
system.switch_cpus0.num_fp_register_reads     72461588                       # number of times the floating registers were read
system.switch_cpus0.num_fp_register_writes     38241785                       # number of times the floating registers were written
system.switch_cpus0.num_func_calls            1200517                       # number of times a function call or return occured
system.switch_cpus0.num_idle_cycles      8955682.182261                       # Number of idle cycles
system.switch_cpus0.num_int_alu_accesses     85194613                       # Number of integer alu accesses
system.switch_cpus0.num_int_insts            85194613                       # number of integer instructions
system.switch_cpus0.num_int_register_reads    179726284                       # number of times the integer registers were read
system.switch_cpus0.num_int_register_writes     66520837                       # number of times the integer registers were written
system.switch_cpus0.num_load_insts           19227737                       # Number of load instructions
system.switch_cpus0.num_mem_refs             25233008                       # number of memory refs
system.switch_cpus0.num_store_insts           6005271                       # Number of store instructions
system.switch_cpus0.num_vec_alu_accesses            0                       # Number of vector alu accesses
system.switch_cpus0.num_vec_insts                   0                       # number of vector instructions
system.switch_cpus0.num_vec_register_reads            0                       # number of times the vector registers were read
system.switch_cpus0.num_vec_register_writes            0                       # number of times the vector registers were written
system.switch_cpus0.op_class::No_OpClass       406117      0.34%      0.34% # Class of executed instruction
system.switch_cpus0.op_class::IntAlu         59824259     49.88%     50.22% # Class of executed instruction
system.switch_cpus0.op_class::IntMult            8535      0.01%     50.23% # Class of executed instruction
system.switch_cpus0.op_class::IntDiv            19071      0.02%     50.24% # Class of executed instruction
system.switch_cpus0.op_class::FloatAdd         869728      0.73%     50.97% # Class of executed instruction
system.switch_cpus0.op_class::FloatCmp              0      0.00%     50.97% # Class of executed instruction
system.switch_cpus0.op_class::FloatCvt            704      0.00%     50.97% # Class of executed instruction
system.switch_cpus0.op_class::FloatMult             0      0.00%     50.97% # Class of executed instruction
system.switch_cpus0.op_class::FloatMultAcc            0      0.00%     50.97% # Class of executed instruction
system.switch_cpus0.op_class::FloatDiv              0      0.00%     50.97% # Class of executed instruction
system.switch_cpus0.op_class::FloatMisc             0      0.00%     50.97% # Class of executed instruction
system.switch_cpus0.op_class::FloatSqrt             0      0.00%     50.97% # Class of executed instruction
system.switch_cpus0.op_class::SimdAdd          202720      0.17%     51.14% # Class of executed instruction
system.switch_cpus0.op_class::SimdAddAcc            0      0.00%     51.14% # Class of executed instruction
system.switch_cpus0.op_class::SimdAlu        18908633     15.77%     66.90% # Class of executed instruction
system.switch_cpus0.op_class::SimdCmp               0      0.00%     66.90% # Class of executed instruction
system.switch_cpus0.op_class::SimdCvt             456      0.00%     66.90% # Class of executed instruction
system.switch_cpus0.op_class::SimdMisc        4367834      3.64%     70.54% # Class of executed instruction
system.switch_cpus0.op_class::SimdMult              0      0.00%     70.54% # Class of executed instruction
system.switch_cpus0.op_class::SimdMultAcc            0      0.00%     70.54% # Class of executed instruction
system.switch_cpus0.op_class::SimdShift        203053      0.17%     70.71% # Class of executed instruction
system.switch_cpus0.op_class::SimdShiftAcc            0      0.00%     70.71% # Class of executed instruction
system.switch_cpus0.op_class::SimdDiv               0      0.00%     70.71% # Class of executed instruction
system.switch_cpus0.op_class::SimdSqrt              0      0.00%     70.71% # Class of executed instruction
system.switch_cpus0.op_class::SimdFloatAdd      4805230      4.01%     74.72% # Class of executed instruction
system.switch_cpus0.op_class::SimdFloatAlu            0      0.00%     74.72% # Class of executed instruction
system.switch_cpus0.op_class::SimdFloatCmp            0      0.00%     74.72% # Class of executed instruction
system.switch_cpus0.op_class::SimdFloatCvt      4452398      3.71%     78.43% # Class of executed instruction
system.switch_cpus0.op_class::SimdFloatDiv        71365      0.06%     78.49% # Class of executed instruction
system.switch_cpus0.op_class::SimdFloatMisc            0      0.00%     78.49% # Class of executed instruction
system.switch_cpus0.op_class::SimdFloatMult       563694      0.47%     78.96% # Class of executed instruction
system.switch_cpus0.op_class::SimdFloatMultAcc            0      0.00%     78.96% # Class of executed instruction
system.switch_cpus0.op_class::SimdFloatSqrt            0      0.00%     78.96% # Class of executed instruction
system.switch_cpus0.op_class::SimdReduceAdd            0      0.00%     78.96% # Class of executed instruction
system.switch_cpus0.op_class::SimdReduceAlu            0      0.00%     78.96% # Class of executed instruction
system.switch_cpus0.op_class::SimdReduceCmp            0      0.00%     78.96% # Class of executed instruction
system.switch_cpus0.op_class::SimdFloatReduceAdd            0      0.00%     78.96% # Class of executed instruction
system.switch_cpus0.op_class::SimdFloatReduceCmp            0      0.00%     78.96% # Class of executed instruction
system.switch_cpus0.op_class::SimdAes               0      0.00%     78.96% # Class of executed instruction
system.switch_cpus0.op_class::SimdAesMix            0      0.00%     78.96% # Class of executed instruction
system.switch_cpus0.op_class::SimdSha1Hash            0      0.00%     78.96% # Class of executed instruction
system.switch_cpus0.op_class::SimdSha1Hash2            0      0.00%     78.96% # Class of executed instruction
system.switch_cpus0.op_class::SimdSha256Hash            0      0.00%     78.96% # Class of executed instruction
system.switch_cpus0.op_class::SimdSha256Hash2            0      0.00%     78.96% # Class of executed instruction
system.switch_cpus0.op_class::SimdShaSigma2            0      0.00%     78.96% # Class of executed instruction
system.switch_cpus0.op_class::SimdShaSigma3            0      0.00%     78.96% # Class of executed instruction
system.switch_cpus0.op_class::SimdPredAlu            0      0.00%     78.96% # Class of executed instruction
system.switch_cpus0.op_class::MemRead        16488698     13.75%     92.71% # Class of executed instruction
system.switch_cpus0.op_class::MemWrite        5444116      4.54%     97.25% # Class of executed instruction
system.switch_cpus0.op_class::FloatMemRead      2739039      2.28%     99.53% # Class of executed instruction
system.switch_cpus0.op_class::FloatMemWrite       561155      0.47%    100.00% # Class of executed instruction
system.switch_cpus0.op_class::IprAccess             0      0.00%    100.00% # Class of executed instruction
system.switch_cpus0.op_class::InstPrefetch            0      0.00%    100.00% # Class of executed instruction
system.switch_cpus0.op_class::total         119936805                       # Class of executed instruction
system.switch_cpus1.Branches                  5870557                       # Number of branches fetched
system.switch_cpus1.committedInsts           68685159                       # Number of instructions committed
system.switch_cpus1.committedOps            119081463                       # Number of ops (including micro ops) committed
system.switch_cpus1.dtb.rdAccesses           20281550                       # TLB accesses on read requests
system.switch_cpus1.dtb.rdMisses              1177032                       # TLB misses on read requests
system.switch_cpus1.dtb.wrAccesses            5896626                       # TLB accesses on write requests
system.switch_cpus1.dtb.wrMisses                 1095                       # TLB misses on write requests
system.switch_cpus1.idle_fraction            0.009597                       # Percentage of idle cycles
system.switch_cpus1.itb.rdAccesses                  0                       # TLB accesses on read requests
system.switch_cpus1.itb.rdMisses                    0                       # TLB misses on read requests
system.switch_cpus1.itb.wrAccesses           96578048                       # TLB accesses on write requests
[...]
system.mem_ctrls1.llc.tags.total_refs               0                       # Total number of references to valid blocks.
system.mem_ctrls1.llc.tags.sampled_refs             0                       # Sample count of references to valid blocks.
system.mem_ctrls1.llc.tags.avg_refs               nan                       # Average number of references to valid blocks.
system.mem_ctrls1.llc.tags.warmup_cycle  102775720903500                       # Cycle when the warmup percentage was hit.
system.mem_ctrls1.llc.tags.occ_blocks::.ruby.dir_cntrl1 86070.418791                       # Average occupied blocks per requestor
system.mem_ctrls1.llc.tags.occ_percent::.ruby.dir_cntrl1     0.328333                       # Average percentage of cache occupancy
system.mem_ctrls1.llc.tags.occ_percent::total     0.328333                       # Average percentage of cache occupancy
system.mem_ctrls1.llc.tags.occ_task_id_blocks::1024       115461                       # Occupied blocks per task id
system.mem_ctrls1.llc.tags.age_task_id_blocks_1024::0           10                       # Occupied blocks per task id
system.mem_ctrls1.llc.tags.age_task_id_blocks_1024::1           73                       # Occupied blocks per task id
system.mem_ctrls1.llc.tags.age_task_id_blocks_1024::2          107                       # Occupied blocks per task id
system.mem_ctrls1.llc.tags.age_task_id_blocks_1024::3          770                       # Occupied blocks per task id
system.mem_ctrls1.llc.tags.age_task_id_blocks_1024::4       114501                       # Occupied blocks per task id
system.mem_ctrls1.llc.tags.occ_task_id_percent::1024     0.440449                       # Percentage of cache occupancy per task id
system.mem_ctrls1.llc.tags.tag_accesses      55185813                       # Number of tag accesses
system.mem_ctrls1.llc.tags.data_accesses      3441897                       # Number of data accesses
system.mem_ctrls1.llc.tags.power_state.pwrStateResidencyTicks::UNDEFINED 103046666378001                       # Cumulative time (in ticks) in various power states
system.mem_ctrls1.rank1.actEnergy           402067680                       # Energy for activate commands per rank (pJ)
system.mem_ctrls1.rank1.preEnergy           213700245                       # Energy for precharge commands per rank (pJ)
system.mem_ctrls1.rank1.readEnergy          410928420                       # Energy for read commands per rank (pJ)
system.mem_ctrls1.rank1.writeEnergy                 0                       # Energy for write commands per rank (pJ)
system.mem_ctrls1.rank1.refreshEnergy    21387628080.000004                       # Energy for refresh commands per rank (pJ)
system.mem_ctrls1.rank1.actBackEnergy     53286826200                       # Energy for active background per rank (pJ)
system.mem_ctrls1.rank1.preBackEnergy     59169965760                       # Energy for precharge background per rank (pJ)
system.mem_ctrls1.rank1.actPowerDownEnergy            0                       # Energy for active power-down per rank (pJ)
system.mem_ctrls1.rank1.prePowerDownEnergy            0                       # Energy for precharge power-down per rank (pJ)
system.mem_ctrls1.rank1.selfRefreshEnergy            0                       # Energy for self refresh per rank (pJ)
system.mem_ctrls1.rank1.totalEnergy      134871116385                       # Total energy per rank (pJ)
system.mem_ctrls1.rank1.averagePower       497.779233                       # Core power per rank (mW)
system.mem_ctrls1.rank1.totalIdleTime               0                       # Total Idle time Per DRAM Rank
system.mem_ctrls1.rank1.memoryStateTime::IDLE 153284453255                       # Time in different power states
system.mem_ctrls1.rank1.memoryStateTime::REF   9047220000                       # Time in different power states
system.mem_ctrls1.rank1.memoryStateTime::SREF            0                       # Time in different power states
system.mem_ctrls1.rank1.memoryStateTime::PRE_PDN            0                       # Time in different power states
system.mem_ctrls1.rank1.memoryStateTime::ACT 108613973746                       # Time in different power states
system.mem_ctrls1.rank1.memoryStateTime::ACT_PDN            0                       # Time in different power states
system.mem_ctrls1.rank0.actEnergy           403138680                       # Energy for activate commands per rank (pJ)
system.mem_ctrls1.rank0.preEnergy           214261905                       # Energy for precharge commands per rank (pJ)
system.mem_ctrls1.rank0.readEnergy          413463120                       # Energy for read commands per rank (pJ)
system.mem_ctrls1.rank0.writeEnergy                 0                       # Energy for write commands per rank (pJ)
system.mem_ctrls1.rank0.refreshEnergy    21387628080.000004                       # Energy for refresh commands per rank (pJ)
system.mem_ctrls1.rank0.actBackEnergy     53361483090                       # Energy for active background per rank (pJ)
system.mem_ctrls1.rank0.preBackEnergy     59107096320                       # Energy for precharge background per rank (pJ)
system.mem_ctrls1.rank0.actPowerDownEnergy            0                       # Energy for active power-down per rank (pJ)
system.mem_ctrls1.rank0.prePowerDownEnergy            0                       # Energy for precharge power-down per rank (pJ)
system.mem_ctrls1.rank0.selfRefreshEnergy            0                       # Energy for self refresh per rank (pJ)
system.mem_ctrls1.rank0.totalEnergy      134887071195                       # Total energy per rank (pJ)
system.mem_ctrls1.rank0.averagePower       497.838119                       # Core power per rank (mW)
system.mem_ctrls1.rank0.totalIdleTime               0                       # Total Idle time Per DRAM Rank
system.mem_ctrls1.rank0.memoryStateTime::IDLE 153118982753                       # Time in different power states
system.mem_ctrls1.rank0.memoryStateTime::REF   9047220000                       # Time in different power states
system.mem_ctrls1.rank0.memoryStateTime::SREF            0                       # Time in different power states
system.mem_ctrls1.rank0.memoryStateTime::PRE_PDN            0                       # Time in different power states
system.mem_ctrls1.rank0.memoryStateTime::ACT 108779444248                       # Time in different power states
system.mem_ctrls1.rank0.memoryStateTime::ACT_PDN            0                       # Time in different power states
system.mem_ctrls1.power_state.pwrStateResidencyTicks::UNDEFINED 103046666378001                       # Cumulative time (in ticks) in various power states
system.cpu_voltage_domain.voltage                   1                       # Voltage in Volts
system.iobus.trans_dist::ReadReq                  370                       # Transaction distribution
system.iobus.trans_dist::ReadResp                 370                       # Transaction distribution
system.iobus.trans_dist::WriteReq                1757                       # Transaction distribution
system.iobus.trans_dist::WriteResp               1757                       # Transaction distribution
system.iobus.pkt_count_system.pc.south_bridge.io_apic.int_master::system.ruby.l1_cntrl1.sequencer.pio-slave-port          180                       # Packet count per connected master and slave (bytes)
system.iobus.pkt_count_system.pc.south_bridge.io_apic.int_master::total          180                       # Packet count per connected master and slave (bytes)
system.iobus.pkt_count_system.ruby.l1_cntrl0.sequencer.mem-master-port::system.ruby.l1_cntrl0.sequencer.pio-slave-port          736                       # Packet count per connected master and slave (bytes)
system.iobus.pkt_count_system.ruby.l1_cntrl0.sequencer.mem-master-port::system.ruby.l1_cntrl1.sequencer.pio-slave-port           18                       # Packet count per connected master and slave (bytes)
system.iobus.pkt_count_system.ruby.l1_cntrl0.sequencer.mem-master-port::system.ruby.l1_cntrl2.sequencer.pio-slave-port           18                       # Packet count per connected master and slave (bytes)
system.iobus.pkt_count_system.ruby.l1_cntrl0.sequencer.mem-master-port::system.ruby.l1_cntrl3.sequencer.pio-slave-port           16                       # Packet count per connected master and slave (bytes)
system.iobus.pkt_count_system.ruby.l1_cntrl0.sequencer.mem-master-port::total          788                       # Packet count per connected master and slave (bytes)
system.iobus.pkt_count_system.ruby.l1_cntrl1.sequencer.mem-master-port::system.pc.south_bridge.ide.pio           12                       # Packet count per connected master and slave (bytes)
system.iobus.pkt_count_system.ruby.l1_cntrl1.sequencer.mem-master-port::system.pc.com_1.pio          698                       # Packet count per connected master and slave (bytes)
system.iobus.pkt_count_system.ruby.l1_cntrl1.sequencer.mem-master-port::system.ruby.l1_cntrl0.sequencer.pio-slave-port           28                       # Packet count per connected master and slave (bytes)
system.iobus.pkt_count_system.ruby.l1_cntrl1.sequencer.mem-master-port::system.ruby.l1_cntrl1.sequencer.pio-slave-port          870                       # Packet count per connected master and slave (bytes)
system.iobus.pkt_count_system.ruby.l1_cntrl1.sequencer.mem-master-port::system.ruby.l1_cntrl2.sequencer.pio-slave-port           30                       # Packet count per connected master and slave (bytes)
system.iobus.pkt_count_system.ruby.l1_cntrl1.sequencer.mem-master-port::system.ruby.l1_cntrl3.sequencer.pio-slave-port           30                       # Packet count per connected master and slave (bytes)
system.iobus.pkt_count_system.ruby.l1_cntrl1.sequencer.mem-master-port::total         1668                       # Packet count per connected master and slave (bytes)
system.iobus.pkt_count_system.ruby.l1_cntrl2.sequencer.mem-master-port::system.ruby.l1_cntrl0.sequencer.pio-slave-port           18                       # Packet count per connected master and slave (bytes)
system.iobus.pkt_count_system.ruby.l1_cntrl2.sequencer.mem-master-port::system.ruby.l1_cntrl1.sequencer.pio-slave-port           14                       # Packet count per connected master and slave (bytes)
system.iobus.pkt_count_system.ruby.l1_cntrl2.sequencer.mem-master-port::system.ruby.l1_cntrl2.sequencer.pio-slave-port          728                       # Packet count per connected master and slave (bytes)
system.iobus.pkt_count_system.ruby.l1_cntrl2.sequencer.mem-master-port::system.ruby.l1_cntrl3.sequencer.pio-slave-port           12                       # Packet count per connected master and slave (bytes)
system.iobus.pkt_count_system.ruby.l1_cntrl2.sequencer.mem-master-port::total          772                       # Packet count per connected master and slave (bytes)
system.iobus.pkt_count_system.ruby.l1_cntrl3.sequencer.mem-master-port::system.pc.south_bridge.ide.pio           34                       # Packet count per connected master and slave (bytes)
system.iobus.pkt_count_system.ruby.l1_cntrl3.sequencer.mem-master-port::system.ruby.l1_cntrl0.sequencer.pio-slave-port           20                       # Packet count per connected master and slave (bytes)
system.iobus.pkt_count_system.ruby.l1_cntrl3.sequencer.mem-master-port::system.ruby.l1_cntrl1.sequencer.pio-slave-port           18                       # Packet count per connected master and slave (bytes)
system.iobus.pkt_count_system.ruby.l1_cntrl3.sequencer.mem-master-port::system.ruby.l1_cntrl2.sequencer.pio-slave-port           20                       # Packet count per connected master and slave (bytes)
system.iobus.pkt_count_system.ruby.l1_cntrl3.sequencer.mem-master-port::system.ruby.l1_cntrl3.sequencer.pio-slave-port          754                       # Packet count per connected master and slave (bytes)
system.iobus.pkt_count_system.ruby.l1_cntrl3.sequencer.mem-master-port::total          846                       # Packet count per connected master and slave (bytes)
system.iobus.pkt_count::total                    4254                       # Packet count per connected master and slave (bytes)
system.iobus.pkt_size_system.pc.south_bridge.io_apic.int_master::system.ruby.l1_cntrl1.sequencer.pio-slave-port          360                       # Cumulative packet size per connected master and slave (bytes)
system.iobus.pkt_size_system.pc.south_bridge.io_apic.int_master::total          360                       # Cumulative packet size per connected master and slave (bytes)
system.iobus.pkt_size_system.ruby.l1_cntrl0.sequencer.mem-master-port::system.ruby.l1_cntrl0.sequencer.pio-slave-port         1472                       # Cumulative packet size per connected master and slave (bytes)
system.iobus.pkt_size_system.ruby.l1_cntrl0.sequencer.mem-master-port::system.ruby.l1_cntrl1.sequencer.pio-slave-port           36                       # Cumulative packet size per connected master and slave (bytes)
system.iobus.pkt_size_system.ruby.l1_cntrl0.sequencer.mem-master-port::system.ruby.l1_cntrl2.sequencer.pio-slave-port           36                       # Cumulative packet size per connected master and slave (bytes)
system.iobus.pkt_size_system.ruby.l1_cntrl0.sequencer.mem-master-port::system.ruby.l1_cntrl3.sequencer.pio-slave-port           32                       # Cumulative packet size per connected master and slave (bytes)
system.iobus.pkt_size_system.ruby.l1_cntrl0.sequencer.mem-master-port::total         1576                       # Cumulative packet size per connected master and slave (bytes)
system.iobus.pkt_size_system.ruby.l1_cntrl1.sequencer.mem-master-port::system.pc.south_bridge.ide.pio            6                       # Cumulative packet size per connected master and slave (bytes)
system.iobus.pkt_size_system.ruby.l1_cntrl1.sequencer.mem-master-port::system.pc.com_1.pio          349                       # Cumulative packet size per connected master and slave (bytes)
system.iobus.pkt_size_system.ruby.l1_cntrl1.sequencer.mem-master-port::system.ruby.l1_cntrl0.sequencer.pio-slave-port           56                       # Cumulative packet size per connected master and slave (bytes)
system.iobus.pkt_size_system.ruby.l1_cntrl1.sequencer.mem-master-port::system.ruby.l1_cntrl1.sequencer.pio-slave-port         1740                       # Cumulative packet size per connected master and slave (bytes)
system.iobus.pkt_size_system.ruby.l1_cntrl1.sequencer.mem-master-port::system.ruby.l1_cntrl2.sequencer.pio-slave-port           60                       # Cumulative packet size per connected master and slave (bytes)
system.iobus.pkt_size_system.ruby.l1_cntrl1.sequencer.mem-master-port::system.ruby.l1_cntrl3.sequencer.pio-slave-port           60                       # Cumulative packet size per connected master and slave (bytes)
system.iobus.pkt_size_system.ruby.l1_cntrl1.sequencer.mem-master-port::total         2271                       # Cumulative packet size per connected master and slave (bytes)
system.iobus.pkt_size_system.ruby.l1_cntrl2.sequencer.mem-master-port::system.ruby.l1_cntrl0.sequencer.pio-slave-port           36                       # Cumulative packet size per connected master and slave (bytes)
system.iobus.pkt_size_system.ruby.l1_cntrl2.sequencer.mem-master-port::system.ruby.l1_cntrl1.sequencer.pio-slave-port           28                       # Cumulative packet size per connected master and slave (bytes)
system.iobus.pkt_size_system.ruby.l1_cntrl2.sequencer.mem-master-port::system.ruby.l1_cntrl2.sequencer.pio-slave-port         1456                       # Cumulative packet size per connected master and slave (bytes)
system.iobus.pkt_size_system.ruby.l1_cntrl2.sequencer.mem-master-port::system.ruby.l1_cntrl3.sequencer.pio-slave-port           24                       # Cumulative packet size per connected master and slave (bytes)
system.iobus.pkt_size_system.ruby.l1_cntrl2.sequencer.mem-master-port::total         1544                       # Cumulative packet size per connected master and slave (bytes)
system.iobus.pkt_size_system.ruby.l1_cntrl3.sequencer.mem-master-port::system.pc.south_bridge.ide.pio           20                       # Cumulative packet size per connected master and slave (bytes)
system.iobus.pkt_size_system.ruby.l1_cntrl3.sequencer.mem-master-port::system.ruby.l1_cntrl0.sequencer.pio-slave-port           40                       # Cumulative packet size per connected master and slave (bytes)
system.iobus.pkt_size_system.ruby.l1_cntrl3.sequencer.mem-master-port::system.ruby.l1_cntrl1.sequencer.pio-slave-port           36                       # Cumulative packet size per connected master and slave (bytes)
system.iobus.pkt_size_system.ruby.l1_cntrl3.sequencer.mem-master-port::system.ruby.l1_cntrl2.sequencer.pio-slave-port           40                       # Cumulative packet size per connected master and slave (bytes)
system.iobus.pkt_size_system.ruby.l1_cntrl3.sequencer.mem-master-port::system.ruby.l1_cntrl3.sequencer.pio-slave-port         1508                       # Cumulative packet size per connected master and slave (bytes)
system.iobus.pkt_size_system.ruby.l1_cntrl3.sequencer.mem-master-port::total         1644                       # Cumulative packet size per connected master and slave (bytes)
system.iobus.pkt_size::total                     7395                       # Cumulative packet size per connected master and slave (bytes)
system.iobus.reqLayer2.occupancy                38000                       # Layer occupancy (ticks)
system.iobus.reqLayer2.utilization                0.0                       # Layer utilization (%)
system.iobus.power_state.pwrStateResidencyTicks::UNDEFINED 103046666378001                       # Cumulative time (in ticks) in various power states
system.iobus.reqLayer19.occupancy              950193                       # Layer occupancy (ticks)
system.iobus.reqLayer19.utilization               0.0                       # Layer utilization (%)
system.iobus.reqLayer17.occupancy              952700                       # Layer occupancy (ticks)
system.iobus.reqLayer17.utilization               0.0                       # Layer utilization (%)
system.iobus.reqLayer12.occupancy              448000                       # Layer occupancy (ticks)
system.iobus.reqLayer12.utilization               0.0                       # Layer utilization (%)
system.iobus.reqLayer18.occupancy             1232690                       # Layer occupancy (ticks)
system.iobus.reqLayer18.utilization               0.0                       # Layer utilization (%)
system.iobus.respLayer9.occupancy              641000                       # Layer occupancy (ticks)
system.iobus.respLayer9.utilization               0.0                       # Layer utilization (%)
system.iobus.respLayer5.occupancy             1349000                       # Layer occupancy (ticks)
system.iobus.respLayer5.utilization               0.0                       # Layer utilization (%)
system.iobus.respLayer7.occupancy              587500                       # Layer occupancy (ticks)
system.iobus.respLayer7.utilization               0.0                       # Layer utilization (%)
system.iobus.respLayer0.occupancy              134999                       # Layer occupancy (ticks)
system.iobus.respLayer0.utilization               0.0                       # Layer utilization (%)
system.iobus.respLayer3.occupancy              599000                       # Layer occupancy (ticks)
system.iobus.respLayer3.utilization               0.0                       # Layer utilization (%)
system.iobus.reqLayer20.occupancy              961690                       # Layer occupancy (ticks)
system.iobus.reqLayer20.utilization               0.0                       # Layer utilization (%)

---------- End Simulation Statistics   ----------
