
---------- Begin Simulation Statistics ----------
final_tick                               102462852348001                       # Number of ticks from beginning of simulation (restored from checkpoints and never reset)
host_inst_rate                                 899262                       # Simulator instruction rate (inst/s)
host_mem_usage                                1890248                       # Number of bytes of host memory used
host_op_rate                                  1123904                       # Simulator op (including micro ops) rate (op/s)
host_seconds                                  7681.47                       # Real time elapsed on the host
host_tick_rate                              201006245                       # Simulator tick rate (ticks/s)
sim_freq                                 1000000000000                       # Frequency of simulated ticks
sim_insts                                  6907654471                       # Number of instructions simulated
sim_ops                                    8633240055                       # Number of ops (including micro ops) simulated
sim_seconds                                  1.544024                       # Number of seconds simulated
sim_ticks                                1544024143501                       # Number of ticks simulated
system.cpu0.committedInsts                          0                       # Number of instructions committed
system.cpu0.dtb.rdAccesses                          0                       # TLB accesses on read requests
system.cpu0.dtb.rdMisses                            0                       # TLB misses on read requests
system.cpu0.dtb.wrAccesses                          0                       # TLB accesses on write requests
system.cpu0.dtb.wrMisses                            0                       # TLB misses on write requests
system.cpu0.itb.rdAccesses                          0                       # TLB accesses on read requests
system.cpu0.itb.rdMisses                            0                       # TLB misses on read requests
system.cpu0.itb.wrAccesses                          0                       # TLB accesses on write requests
system.cpu0.itb.wrMisses                            0                       # TLB misses on write requests
system.cpu0.kern.inst.arm                           0                       # number of arm instructions executed
system.cpu0.kern.inst.quiesce                       0                       # number of quiesce instructions executed
system.cpu0.numCoalescedMMIO                        0                       # number of coalesced memory mapped IO requests
system.cpu0.numCycles                               0                       # number of cpu cycles simulated
system.cpu0.numExitSignal                           0                       # exits due to signal delivery
system.cpu0.numHalt                                 0                       # number of VM exits due to wait for interrupt instructions
system.cpu0.numHypercalls                           0                       # number of hypercalls
system.cpu0.numIO                                   0                       # number of VM exits due to legacy IO
system.cpu0.numInterrupts                           0                       # number of interrupts delivered
system.cpu0.numMMIO                                 0                       # number of VM exits due to memory mapped IO
system.cpu0.numVMExits                              0                       # total number of KVM exits
system.cpu0.numVMHalfEntries                        0                       # number of KVM entries to finalize pending operations
system.cpu0.numWorkItemsCompleted                   0                       # number of work items this cpu completed
system.cpu0.numWorkItemsStarted                     0                       # number of work items this cpu started
system.cpu1.committedInsts                          0                       # Number of instructions committed
system.cpu1.dtb.rdAccesses                          0                       # TLB accesses on read requests
system.cpu1.dtb.rdMisses                            0                       # TLB misses on read requests
system.cpu1.dtb.wrAccesses                          0                       # TLB accesses on write requests
system.cpu1.dtb.wrMisses                            0                       # TLB misses on write requests
system.cpu1.itb.rdAccesses                          0                       # TLB accesses on read requests
system.cpu1.itb.rdMisses                            0                       # TLB misses on read requests
system.cpu1.itb.wrAccesses                          0                       # TLB accesses on write requests
system.cpu1.itb.wrMisses                            0                       # TLB misses on write requests
system.cpu1.kern.inst.arm                           0                       # number of arm instructions executed
system.cpu1.kern.inst.quiesce                       0                       # number of quiesce instructions executed
system.cpu1.numCoalescedMMIO                        0                       # number of coalesced memory mapped IO requests
system.cpu1.numCycles                               0                       # number of cpu cycles simulated
system.cpu1.numExitSignal                           0                       # exits due to signal delivery
system.cpu1.numHalt                                 0                       # number of VM exits due to wait for interrupt instructions
system.cpu1.numHypercalls                           0                       # number of hypercalls
system.cpu1.numIO                                   0                       # number of VM exits due to legacy IO
system.cpu1.numInterrupts                           0                       # number of interrupts delivered
system.cpu1.numMMIO                                 0                       # number of VM exits due to memory mapped IO
system.cpu1.numVMExits                              0                       # total number of KVM exits
system.cpu1.numVMHalfEntries                        0                       # number of KVM entries to finalize pending operations
system.cpu1.numWorkItemsCompleted                   0                       # number of work items this cpu completed
system.cpu1.numWorkItemsStarted                     0                       # number of work items this cpu started
system.cpu2.committedInsts                          0                       # Number of instructions committed
system.cpu2.dtb.rdAccesses                          0                       # TLB accesses on read requests
system.cpu2.dtb.rdMisses                            0                       # TLB misses on read requests
system.cpu2.dtb.wrAccesses                          0                       # TLB accesses on write requests
system.cpu2.dtb.wrMisses                            0                       # TLB misses on write requests
system.cpu2.itb.rdAccesses                          0                       # TLB accesses on read requests
system.cpu2.itb.rdMisses                            0                       # TLB misses on read requests
system.cpu2.itb.wrAccesses                          0                       # TLB accesses on write requests
system.cpu2.itb.wrMisses                            0                       # TLB misses on write requests
system.cpu2.kern.inst.arm                           0                       # number of arm instructions executed
system.cpu2.kern.inst.quiesce                       0                       # number of quiesce instructions executed
system.cpu2.numCoalescedMMIO                        0                       # number of coalesced memory mapped IO requests
system.cpu2.numCycles                               0                       # number of cpu cycles simulated
system.cpu2.numExitSignal                           0                       # exits due to signal delivery
system.cpu2.numHalt                                 0                       # number of VM exits due to wait for interrupt instructions
system.cpu2.numHypercalls                           0                       # number of hypercalls
system.cpu2.numIO                                   0                       # number of VM exits due to legacy IO
system.cpu2.numInterrupts                           0                       # number of interrupts delivered
system.cpu2.numMMIO                                 0                       # number of VM exits due to memory mapped IO
system.cpu2.numVMExits                              0                       # total number of KVM exits
system.cpu2.numVMHalfEntries                        0                       # number of KVM entries to finalize pending operations
system.cpu2.numWorkItemsCompleted                   0                       # number of work items this cpu completed
system.cpu2.numWorkItemsStarted                     0                       # number of work items this cpu started
system.cpu3.committedInsts                          0                       # Number of instructions committed
system.cpu3.dtb.rdAccesses                          0                       # TLB accesses on read requests
system.cpu3.dtb.rdMisses                            0                       # TLB misses on read requests
system.cpu3.dtb.wrAccesses                          0                       # TLB accesses on write requests
system.cpu3.dtb.wrMisses                            0                       # TLB misses on write requests
system.cpu3.itb.rdAccesses                          0                       # TLB accesses on read requests
system.cpu3.itb.rdMisses                            0                       # TLB misses on read requests
system.cpu3.itb.wrAccesses                          0                       # TLB accesses on write requests
system.cpu3.itb.wrMisses                            0                       # TLB misses on write requests
system.cpu3.kern.inst.arm                           0                       # number of arm instructions executed
system.cpu3.kern.inst.quiesce                       0                       # number of quiesce instructions executed
system.cpu3.numCoalescedMMIO                        0                       # number of coalesced memory mapped IO requests
system.cpu3.numCycles                               0                       # number of cpu cycles simulated
system.cpu3.numExitSignal                           0                       # exits due to signal delivery
system.cpu3.numHalt                                 0                       # number of VM exits due to wait for interrupt instructions
system.cpu3.numHypercalls                           0                       # number of hypercalls
system.cpu3.numIO                                   0                       # number of VM exits due to legacy IO
system.cpu3.numInterrupts                           0                       # number of interrupts delivered
system.cpu3.numMMIO                                 0                       # number of VM exits due to memory mapped IO
system.cpu3.numVMExits                              0                       # total number of KVM exits
system.cpu3.numVMHalfEntries                        0                       # number of KVM entries to finalize pending operations
system.cpu3.numWorkItemsCompleted                   0                       # number of work items this cpu completed
system.cpu3.numWorkItemsStarted                     0                       # number of work items this cpu started
system.pc.south_bridge.ide.disks.dma_read_bytes       258048                       # Number of bytes transfered via DMA reads (not PRD).
system.pc.south_bridge.ide.disks.dma_read_full_pages           63                       # Number of full page size DMA reads (not PRD).
system.pc.south_bridge.ide.disks.dma_read_txs           63                       # Number of DMA read transactions (not PRD).
system.pc.south_bridge.ide.disks.dma_write_bytes       126976                       # Number of bytes transfered via DMA writes.
system.pc.south_bridge.ide.disks.dma_write_full_pages           31                       # Number of full page size DMA writes.
system.pc.south_bridge.ide.disks.dma_write_txs           31                       # Number of DMA write transactions.
system.ruby.DMA_Controller.I.allocI_load |        4042    100.00%    100.00% |           0      0.00%    100.00%
system.ruby.DMA_Controller.I.allocI_load::total         4042                      
system.ruby.DMA_Controller.I.allocI_store |        1984    100.00%    100.00% |           0      0.00%    100.00%
system.ruby.DMA_Controller.I.allocI_store::total         1984                      
system.ruby.DMA_Controller.I.deallocfwdfrom_in |        5002    100.00%    100.00% |           0      0.00%    100.00%
system.ruby.DMA_Controller.I.deallocfwdfrom_in::total         5002                      
system.ruby.DMA_Controller.M.allocTBE    |         961    100.00%    100.00% |           0      0.00%    100.00%
system.ruby.DMA_Controller.M.allocTBE::total          961                      
system.ruby.DMA_Controller.M.externalstoreMrespfrom_in |        1984    100.00%    100.00% |           0      0.00%    100.00%
system.ruby.DMA_Controller.M.externalstoreMrespfrom_in::total         1984                      
system.ruby.DMA_Controller.M_evict.Stallmandatory_in |       14233    100.00%    100.00% |           0      0.00%    100.00%
system.ruby.DMA_Controller.M_evict.Stallmandatory_in::total        14233                      
system.ruby.DMA_Controller.S.SloadSEvent |          54    100.00%    100.00% |           0      0.00%    100.00%
system.ruby.DMA_Controller.S.SloadSEvent::total           54                      
system.ruby.DMA_Controller.S.allocTBE    |        4042    100.00%    100.00% |           0      0.00%    100.00%
system.ruby.DMA_Controller.S.allocTBE::total         4042                      
system.ruby.DMA_Controller.S.externalloadSrespfrom_in |        4042    100.00%    100.00% |           0      0.00%    100.00%
system.ruby.DMA_Controller.S.externalloadSrespfrom_in::total         4042                      
system.ruby.DMA_Controller.S_evict.Stallmandatory_in |       11923    100.00%    100.00% |           0      0.00%    100.00%
system.ruby.DMA_Controller.S_evict.Stallmandatory_in::total        11923                      
system.ruby.DMA_Controller.SloadSEvent   |          54    100.00%    100.00% |           0      0.00%    100.00%
system.ruby.DMA_Controller.SloadSEvent::total           54                      
system.ruby.DMA_Controller.Stallmandatory_in |       26156    100.00%    100.00% |           0      0.00%    100.00%
system.ruby.DMA_Controller.Stallmandatory_in::total        26156                      
system.ruby.DMA_Controller.allocI_load   |        4042    100.00%    100.00% |           0      0.00%    100.00%
system.ruby.DMA_Controller.allocI_load::total         4042                      
system.ruby.DMA_Controller.allocI_store  |        1984    100.00%    100.00% |           0      0.00%    100.00%
system.ruby.DMA_Controller.allocI_store::total         1984                      
system.ruby.DMA_Controller.allocTBE      |        5003    100.00%    100.00% |           0      0.00%    100.00%
system.ruby.DMA_Controller.allocTBE::total         5003                      
system.ruby.DMA_Controller.deallocfwdfrom_in |        5002    100.00%    100.00% |           0      0.00%    100.00%
system.ruby.DMA_Controller.deallocfwdfrom_in::total         5002                      
system.ruby.DMA_Controller.externalloadSrespfrom_in |        4042    100.00%    100.00% |           0      0.00%    100.00%
system.ruby.DMA_Controller.externalloadSrespfrom_in::total         4042                      
system.ruby.DMA_Controller.externalstoreMrespfrom_in |        1984    100.00%    100.00% |           0      0.00%    100.00%
system.ruby.DMA_Controller.externalstoreMrespfrom_in::total         1984                      
system.ruby.Directory_Controller.I.allocTBE |     3015359     26.32%     26.32% |     2919679     25.49%     51.81% |     2750015     24.01%     75.82% |     2770454     24.18%    100.00%
system.ruby.Directory_Controller.I.allocTBE::total     11455507                      
system.ruby.Directory_Controller.I.deallocTBE |     3014335     26.32%     26.32% |     2918696     25.49%     51.81% |     2749012     24.01%     75.82% |     2769483     24.18%    100.00%
system.ruby.Directory_Controller.I.deallocTBE::total     11451526                      
system.ruby.Directory_Controller.I_GetML1C1C1_0.Stallreqto_in |           0      0.00%      0.00% |           0      0.00%      0.00% |           3     23.08%     23.08% |          10     76.92%    100.00%
system.ruby.Directory_Controller.I_GetML1C1C1_0.Stallreqto_in::total           13                      
system.ruby.Directory_Controller.I_GetSL1C1C1_0.Stallreqto_in |         771     34.37%     34.37% |         565     25.19%     59.56% |         443     19.75%     79.31% |         464     20.69%    100.00%
system.ruby.Directory_Controller.I_GetSL1C1C1_0.Stallreqto_in::total         2243                      
system.ruby.Directory_Controller.M.allocTBE |     1187302     26.19%     26.19% |     1114186     24.58%     50.77% |     1131046     24.95%     75.73% |     1100301     24.27%    100.00%
system.ruby.Directory_Controller.M.allocTBE::total      4532835                      
system.ruby.Directory_Controller.M.deallocTBE |     1187886     26.19%     26.19% |     1114768     24.58%     50.77% |     1131617     24.95%     75.73% |     1100885     24.27%    100.00%
system.ruby.Directory_Controller.M.deallocTBE::total      4535156                      
system.ruby.Directory_Controller.M_GetM.Progress |        2006     13.08%     13.08% |        2408     15.70%     28.79% |        9639     62.86%     91.65% |        1280      8.35%    100.00%
system.ruby.Directory_Controller.M_GetM.Progress::total        15333                      
system.ruby.Directory_Controller.M_GetM.Stallreqto_in |          22     39.29%     39.29% |           6     10.71%     50.00% |          28     50.00%    100.00% |           0      0.00%    100.00%
system.ruby.Directory_Controller.M_GetM.Stallreqto_in::total           56                      
system.ruby.Directory_Controller.M_GetS.Progress |        5652     17.23%     17.23% |       12181     37.13%     54.36% |       11766     35.87%     90.22% |        3207      9.78%    100.00%
system.ruby.Directory_Controller.M_GetS.Progress::total        32806                      
system.ruby.Directory_Controller.M_GetS.Stallreqto_in |         290     41.61%     41.61% |          98     14.06%     55.67% |         190     27.26%     82.93% |         119     17.07%    100.00%
system.ruby.Directory_Controller.M_GetS.Stallreqto_in::total          697                      
system.ruby.Directory_Controller.M_GetS_WBL1C1C1_0.Stallreqto_in |         319     26.78%     26.78% |         220     18.47%     45.26% |         401     33.67%     78.93% |         251     21.07%    100.00%
system.ruby.Directory_Controller.M_GetS_WBL1C1C1_0.Stallreqto_in::total         1191                      
system.ruby.Directory_Controller.M_PutML1C1C1_0.Stallreqto_in |           0      0.00%      0.00% |           1     25.00%     25.00% |           3     75.00%    100.00% |           0      0.00%    100.00%
system.ruby.Directory_Controller.M_PutML1C1C1_0.Stallreqto_in::total            4                      
system.ruby.Directory_Controller.Progress |       10952     18.16%     18.16% |       16900     28.02%     46.17% |       25345     42.02%     88.19% |        7122     11.81%    100.00%
system.ruby.Directory_Controller.Progress::total        60319                      
system.ruby.Directory_Controller.S.allocTBE |     3816607     25.25%     25.25% |     3843449     25.43%     50.69% |     3988474     26.39%     77.08% |     3464253     22.92%    100.00%
system.ruby.Directory_Controller.S.allocTBE::total     15112783                      
system.ruby.Directory_Controller.S.deallocTBE |     3817047     25.25%     25.25% |     3843850     25.43%     50.69% |     3988906     26.39%     77.08% |     3464640     22.92%    100.00%
system.ruby.Directory_Controller.S.deallocTBE::total     15114443                      
system.ruby.Directory_Controller.S_GetM.Progress |        3294     27.04%     27.04% |        2311     18.97%     46.02% |        3940     32.35%     78.37% |        2635     21.63%    100.00%
system.ruby.Directory_Controller.S_GetM.Progress::total        12180                      
system.ruby.Directory_Controller.S_GetM.Stallreqto_in |          80     15.36%     15.36% |         150     28.79%     44.15% |         288     55.28%     99.42% |           3      0.58%    100.00%
system.ruby.Directory_Controller.S_GetM.Stallreqto_in::total          521                      
system.ruby.Directory_Controller.S_GetM.allocTBE |        5059     15.94%     15.94% |       11987     37.78%     53.72% |       11508     36.27%     89.98% |        3178     10.02%    100.00%
system.ruby.Directory_Controller.S_GetM.allocTBE::total        31732                      
system.ruby.Directory_Controller.S_GetM.deallocTBE |        5059     15.94%     15.94% |       11987     37.78%     53.72% |       11508     36.27%     89.98% |        3178     10.02%    100.00%
system.ruby.Directory_Controller.S_GetM.deallocTBE::total        31732                      
system.ruby.Directory_Controller.S_GetML1C1C1_0.Stallreqto_in |          21      5.74%      5.74% |         162     44.26%     50.00% |         182     49.73%     99.73% |           1      0.27%    100.00%
system.ruby.Directory_Controller.S_GetML1C1C1_0.Stallreqto_in::total          366                      
system.ruby.Directory_Controller.S_GetML1C1C1_1.Stallreqto_in |           0      0.00%      0.00% |           0      0.00%      0.00% |           9    100.00%    100.00% |           0      0.00%    100.00%
system.ruby.Directory_Controller.S_GetML1C1C1_1.Stallreqto_in::total            9                      
system.ruby.Directory_Controller.S_GetML1C1C1_2.Stallreqto_in |           8     17.78%     17.78% |           4      8.89%     26.67% |          33     73.33%    100.00% |           0      0.00%    100.00%
system.ruby.Directory_Controller.S_GetML1C1C1_2.Stallreqto_in::total           45                      
system.ruby.Directory_Controller.S_GetSL1C1C1_0.Stallreqto_in |        2892     37.88%     37.88% |        1848     24.21%     62.09% |        1771     23.20%     85.29% |        1123     14.71%    100.00%
system.ruby.Directory_Controller.S_GetSL1C1C1_0.Stallreqto_in::total         7634                      
system.ruby.Directory_Controller.Stallreqto_in |        4403     34.45%     34.45% |        3054     23.90%     58.35% |        3351     26.22%     84.58% |        1971     15.42%    100.00%
system.ruby.Directory_Controller.Stallreqto_in::total        12779                      
system.ruby.Directory_Controller.allocTBE |     8024327     25.77%     25.77% |     7889301     25.34%     51.12% |     7881043     25.31%     76.43% |     7338186     23.57%    100.00%
system.ruby.Directory_Controller.allocTBE::total     31132857                      
system.ruby.Directory_Controller.deallocTBE |     8024327     25.77%     25.77% |     7889301     25.34%     51.12% |     7881043     25.31%     76.43% |     7338186     23.57%    100.00%
system.ruby.Directory_Controller.deallocTBE::total     31132857                      
system.ruby.IFETCH.hit_latency_hist_seqr::bucket_size            1                      
system.ruby.IFETCH.hit_latency_hist_seqr::max_bucket            9                      
system.ruby.IFETCH.hit_latency_hist_seqr::samples   2539604894                      
system.ruby.IFETCH.hit_latency_hist_seqr |  2539604894    100.00%    100.00% |           0      0.00%    100.00% |           0      0.00%    100.00% |           0      0.00%    100.00% |           0      0.00%    100.00% |           0      0.00%    100.00% |           0      0.00%    100.00% |           0      0.00%    100.00% |           0      0.00%    100.00% |           0      0.00%    100.00%
system.ruby.IFETCH.hit_latency_hist_seqr::total   2539604894                      
system.ruby.IFETCH.latency_hist_seqr::bucket_size            1                      
system.ruby.IFETCH.latency_hist_seqr::max_bucket            9                      
system.ruby.IFETCH.latency_hist_seqr::samples   2542787309                      
system.ruby.IFETCH.latency_hist_seqr     |  2542787309    100.00%    100.00% |           0      0.00%    100.00% |           0      0.00%    100.00% |           0      0.00%    100.00% |           0      0.00%    100.00% |           0      0.00%    100.00% |           0      0.00%    100.00% |           0      0.00%    100.00% |           0      0.00%    100.00% |           0      0.00%    100.00%
system.ruby.IFETCH.latency_hist_seqr::total   2542787309                      
system.ruby.IFETCH.miss_latency_hist_seqr::bucket_size            1                      
system.ruby.IFETCH.miss_latency_hist_seqr::max_bucket            9                      
system.ruby.IFETCH.miss_latency_hist_seqr::samples      3182415                      
system.ruby.IFETCH.miss_latency_hist_seqr |     3182415    100.00%    100.00% |           0      0.00%    100.00% |           0      0.00%    100.00% |           0      0.00%    100.00% |           0      0.00%    100.00% |           0      0.00%    100.00% |           0      0.00%    100.00% |           0      0.00%    100.00% |           0      0.00%    100.00% |           0      0.00%    100.00%
system.ruby.IFETCH.miss_latency_hist_seqr::total      3182415                      
system.ruby.L1Cache_Controller.I.allocI_load |     3555687     30.87%     30.87% |     2302825     19.99%     50.86% |     2769711     24.04%     74.90% |     2890834     25.10%    100.00%
system.ruby.L1Cache_Controller.I.allocI_load::total     11519057                      
system.ruby.L1Cache_Controller.I.allocI_store |      897588     25.06%     25.06% |      665535     18.58%     43.64% |      941112     26.27%     69.91% |     1077834     30.09%    100.00%
system.ruby.L1Cache_Controller.I.allocI_store::total      3582069                      
system.ruby.L1Cache_Controller.I.deallocfwdfrom_in |     4452253     29.49%     29.49% |     2967346     19.66%     49.15% |     3709807     24.57%     73.72% |     3967644     26.28%    100.00%
system.ruby.L1Cache_Controller.I.deallocfwdfrom_in::total     15097050                      
system.ruby.L1Cache_Controller.I_store.Progress |        4203     62.94%     62.94% |         821     12.29%     75.23% |         687     10.29%     85.52% |         967     14.48%    100.00%
system.ruby.L1Cache_Controller.I_store.Progress::total         6678                      
system.ruby.L1Cache_Controller.I_store.Stallfwdfrom_in |          42     23.33%     23.33% |          52     28.89%     52.22% |          48     26.67%     78.89% |          38     21.11%    100.00%
system.ruby.L1Cache_Controller.I_store.Stallfwdfrom_in::total          180                      
system.ruby.L1Cache_Controller.M.MloadMEvent |    61907999     20.07%     20.07% |    67875320     22.00%     42.07% |    82608319     26.78%     68.84% |    96129741     31.16%    100.00%
system.ruby.L1Cache_Controller.M.MloadMEvent::total    308521379                      
system.ruby.L1Cache_Controller.M.MstoreMEvent |    59593890     21.92%     21.92% |    58275987     21.43%     43.35% |    73752022     27.13%     70.48% |    80264183     29.52%    100.00%
system.ruby.L1Cache_Controller.M.MstoreMEvent::total    271886082                      
system.ruby.L1Cache_Controller.M.allocTBE |     1270796     28.04%     28.04% |      840667     18.55%     46.59% |     1151684     25.41%     72.00% |     1268721     28.00%    100.00%
system.ruby.L1Cache_Controller.M.allocTBE::total      4531868                      
system.ruby.L1Cache_Controller.M.externalstoreMrespfrom_in |     1271098     28.04%     28.04% |      840972     18.55%     46.59% |     1152042     25.41%     72.01% |     1269054     27.99%    100.00%
system.ruby.L1Cache_Controller.M.externalstoreMrespfrom_in::total      4533166                      
system.ruby.L1Cache_Controller.M_evict.Stallmandatory_in |        4043     32.42%     32.42% |        2955     23.70%     56.12% |        2688     21.56%     77.68% |        2783     22.32%    100.00%
system.ruby.L1Cache_Controller.M_evict.Stallmandatory_in::total        12469                      
system.ruby.L1Cache_Controller.M_evict_x_I.Progress |           0      0.00%      0.00% |           0      0.00%      0.00% |           0      0.00%      0.00% |           1    100.00%    100.00%
system.ruby.L1Cache_Controller.M_evict_x_I.Progress::total            1                      
system.ruby.L1Cache_Controller.M_evict_x_I.Stallmandatory_in |           0      0.00%      0.00% |           0      0.00%      0.00% |           0      0.00%      0.00% |           3    100.00%    100.00%
system.ruby.L1Cache_Controller.M_evict_x_I.Stallmandatory_in::total            3                      
system.ruby.L1Cache_Controller.MloadMEvent |    61907999     20.07%     20.07% |    67875320     22.00%     42.07% |    82608319     26.78%     68.84% |    96129741     31.16%    100.00%
system.ruby.L1Cache_Controller.MloadMEvent::total    308521379                      
system.ruby.L1Cache_Controller.MstoreMEvent |    59593890     21.92%     21.92% |    58275987     21.43%     43.35% |    73752022     27.13%     70.48% |    80264183     29.52%    100.00%
system.ruby.L1Cache_Controller.MstoreMEvent::total    271886082                      
system.ruby.L1Cache_Controller.Progress  |      396825     39.88%     39.88% |      182583     18.35%     58.23% |      217319     21.84%     80.07% |      198352     19.93%    100.00%
system.ruby.L1Cache_Controller.Progress::total       995079                      
system.ruby.L1Cache_Controller.S.SloadSEvent |   591436540     21.59%     21.59% |   605889491     22.12%     43.71% |   734781943     26.82%     70.53% |   807404761     29.47%    100.00%
system.ruby.L1Cache_Controller.S.SloadSEvent::total   2739512735                      
system.ruby.L1Cache_Controller.S.allocTBE |     3569839     30.91%     30.91% |     2308446     19.99%     50.90% |     2774783     24.03%     74.92% |     2896016     25.08%    100.00%
system.ruby.L1Cache_Controller.S.allocTBE::total     11549084                      
system.ruby.L1Cache_Controller.S.deallocTBE |       14872     45.33%     45.33% |        6330     19.30%     64.63% |        5730     17.47%     82.10% |        5873     17.90%    100.00%
system.ruby.L1Cache_Controller.S.deallocTBE::total        32805                      
system.ruby.L1Cache_Controller.S.externalloadSrespfrom_in |     3555687     30.87%     30.87% |     2302825     19.99%     50.86% |     2769711     24.04%     74.90% |     2890834     25.10%    100.00%
system.ruby.L1Cache_Controller.S.externalloadSrespfrom_in::total     11519057                      
system.ruby.L1Cache_Controller.S_evict.Progress |           0      0.00%      0.00% |           0      0.00%      0.00% |           0      0.00%      0.00% |           1    100.00%    100.00%
system.ruby.L1Cache_Controller.S_evict.Progress::total            1                      
system.ruby.L1Cache_Controller.S_evict.Stallmandatory_in |        1809     35.46%     35.46% |        1129     22.13%     57.59% |        1092     21.40%     78.99% |        1072     21.01%    100.00%
system.ruby.L1Cache_Controller.S_evict.Stallmandatory_in::total         5102                      
system.ruby.L1Cache_Controller.S_evict_x_I.Progress |           1     20.00%     20.00% |           2     40.00%     60.00% |           2     40.00%    100.00% |           0      0.00%    100.00%
system.ruby.L1Cache_Controller.S_evict_x_I.Progress::total            5                      
system.ruby.L1Cache_Controller.S_evict_x_I.Stallmandatory_in |           4     23.53%     23.53% |           6     35.29%     58.82% |           7     41.18%    100.00% |           0      0.00%    100.00%
system.ruby.L1Cache_Controller.S_evict_x_I.Stallmandatory_in::total           17                      
system.ruby.L1Cache_Controller.S_store.Progress |      392621     39.72%     39.72% |      181760     18.39%     58.11% |      216629     21.92%     80.03% |      197383     19.97%    100.00%
system.ruby.L1Cache_Controller.S_store.Progress::total       988393                      
system.ruby.L1Cache_Controller.S_store.Stallfwdfrom_in |          12     31.58%     31.58% |          11     28.95%     60.53% |           5     13.16%     73.68% |          10     26.32%    100.00%
system.ruby.L1Cache_Controller.S_store.Stallfwdfrom_in::total           38                      
system.ruby.L1Cache_Controller.S_store_GetM_Ack_AD.Progress |           0      0.00%      0.00% |           0      0.00%      0.00% |           1    100.00%    100.00% |           0      0.00%    100.00%
system.ruby.L1Cache_Controller.S_store_GetM_Ack_AD.Progress::total            1                      
system.ruby.L1Cache_Controller.SloadSEvent |   591436540     21.59%     21.59% |   605889491     22.12%     43.71% |   734781943     26.82%     70.53% |   807404761     29.47%    100.00%
system.ruby.L1Cache_Controller.SloadSEvent::total   2739512735                      
system.ruby.L1Cache_Controller.Stallfwdfrom_in |          54     24.77%     24.77% |          63     28.90%     53.67% |          53     24.31%     77.98% |          48     22.02%    100.00%
system.ruby.L1Cache_Controller.Stallfwdfrom_in::total          218                      
system.ruby.L1Cache_Controller.Stallmandatory_in |        5856     33.29%     33.29% |        4090     23.25%     56.54% |        3787     21.53%     78.07% |        3858     21.93%    100.00%
system.ruby.L1Cache_Controller.Stallmandatory_in::total        17591                      
system.ruby.L1Cache_Controller.allocI_load |     3555687     30.87%     30.87% |     2302825     19.99%     50.86% |     2769711     24.04%     74.90% |     2890834     25.10%    100.00%
system.ruby.L1Cache_Controller.allocI_load::total     11519057                      
system.ruby.L1Cache_Controller.allocI_store |      897588     25.06%     25.06% |      665535     18.58%     43.64% |      941112     26.27%     69.91% |     1077834     30.09%    100.00%
system.ruby.L1Cache_Controller.allocI_store::total      3582069                      
system.ruby.L1Cache_Controller.allocTBE  |     4840635     30.10%     30.10% |     3149113     19.58%     49.68% |     3926467     24.42%     74.10% |     4164737     25.90%    100.00%
system.ruby.L1Cache_Controller.allocTBE::total     16080952                      
system.ruby.L1Cache_Controller.deallocTBE |       14872     45.33%     45.33% |        6330     19.30%     64.63% |        5730     17.47%     82.10% |        5873     17.90%    100.00%
system.ruby.L1Cache_Controller.deallocTBE::total        32805                      
system.ruby.L1Cache_Controller.deallocfwdfrom_in |     4452253     29.49%     29.49% |     2967346     19.66%     49.15% |     3709807     24.57%     73.72% |     3967644     26.28%    100.00%
system.ruby.L1Cache_Controller.deallocfwdfrom_in::total     15097050                      
system.ruby.L1Cache_Controller.externalloadSrespfrom_in |     3555687     30.87%     30.87% |     2302825     19.99%     50.86% |     2769711     24.04%     74.90% |     2890834     25.10%    100.00%
system.ruby.L1Cache_Controller.externalloadSrespfrom_in::total     11519057                      
system.ruby.L1Cache_Controller.externalstoreMrespfrom_in |     1271098     28.04%     28.04% |      840972     18.55%     46.59% |     1152042     25.41%     72.01% |     1269054     27.99%    100.00%
system.ruby.L1Cache_Controller.externalstoreMrespfrom_in::total      4533166                      
system.ruby.LD.hit_latency_hist_seqr::bucket_size            1                      
system.ruby.LD.hit_latency_hist_seqr::max_bucket            9                      
system.ruby.LD.hit_latency_hist_seqr::samples    508429220                      
system.ruby.LD.hit_latency_hist_seqr     |   508429220    100.00%    100.00% |           0      0.00%    100.00% |           0      0.00%    100.00% |           0      0.00%    100.00% |           0      0.00%    100.00% |           0      0.00%    100.00% |           0      0.00%    100.00% |           0      0.00%    100.00% |           0      0.00%    100.00% |           0      0.00%    100.00%
system.ruby.LD.hit_latency_hist_seqr::total    508429220                      
system.ruby.LD.latency_hist_seqr::bucket_size            1                      
system.ruby.LD.latency_hist_seqr::max_bucket            9                      
system.ruby.LD.latency_hist_seqr::samples    516765862                      
system.ruby.LD.latency_hist_seqr         |   516765862    100.00%    100.00% |           0      0.00%    100.00% |           0      0.00%    100.00% |           0      0.00%    100.00% |           0      0.00%    100.00% |           0      0.00%    100.00% |           0      0.00%    100.00% |           0      0.00%    100.00% |           0      0.00%    100.00% |           0      0.00%    100.00%
system.ruby.LD.latency_hist_seqr::total     516765862                      
system.ruby.LD.miss_latency_hist_seqr::bucket_size            1                      
system.ruby.LD.miss_latency_hist_seqr::max_bucket            9                      
system.ruby.LD.miss_latency_hist_seqr::samples      8336642                      
system.ruby.LD.miss_latency_hist_seqr    |     8336642    100.00%    100.00% |           0      0.00%    100.00% |           0      0.00%    100.00% |           0      0.00%    100.00% |           0      0.00%    100.00% |           0      0.00%    100.00% |           0      0.00%    100.00% |           0      0.00%    100.00% |           0      0.00%    100.00% |           0      0.00%    100.00%
system.ruby.LD.miss_latency_hist_seqr::total      8336642                      
system.ruby.Locked_RMW_Read.hit_latency_hist_seqr::bucket_size            1                      
system.ruby.Locked_RMW_Read.hit_latency_hist_seqr::max_bucket            9                      
system.ruby.Locked_RMW_Read.hit_latency_hist_seqr::samples       150139                      
system.ruby.Locked_RMW_Read.hit_latency_hist_seqr |      150139    100.00%    100.00% |           0      0.00%    100.00% |           0      0.00%    100.00% |           0      0.00%    100.00% |           0      0.00%    100.00% |           0      0.00%    100.00% |           0      0.00%    100.00% |           0      0.00%    100.00% |           0      0.00%    100.00% |           0      0.00%    100.00%
system.ruby.Locked_RMW_Read.hit_latency_hist_seqr::total       150139                      
system.ruby.Locked_RMW_Read.latency_hist_seqr::bucket_size            1                      
system.ruby.Locked_RMW_Read.latency_hist_seqr::max_bucket            9                      
system.ruby.Locked_RMW_Read.latency_hist_seqr::samples       215265                      
system.ruby.Locked_RMW_Read.latency_hist_seqr |      215265    100.00%    100.00% |           0      0.00%    100.00% |           0      0.00%    100.00% |           0      0.00%    100.00% |           0      0.00%    100.00% |           0      0.00%    100.00% |           0      0.00%    100.00% |           0      0.00%    100.00% |           0      0.00%    100.00% |           0      0.00%    100.00%
system.ruby.Locked_RMW_Read.latency_hist_seqr::total       215265                      
system.ruby.Locked_RMW_Read.miss_latency_hist_seqr::bucket_size            1                      
system.ruby.Locked_RMW_Read.miss_latency_hist_seqr::max_bucket            9                      
system.ruby.Locked_RMW_Read.miss_latency_hist_seqr::samples        65126                      
system.ruby.Locked_RMW_Read.miss_latency_hist_seqr |       65126    100.00%    100.00% |           0      0.00%    100.00% |           0      0.00%    100.00% |           0      0.00%    100.00% |           0      0.00%    100.00% |           0      0.00%    100.00% |           0      0.00%    100.00% |           0      0.00%    100.00% |           0      0.00%    100.00% |           0      0.00%    100.00%
system.ruby.Locked_RMW_Read.miss_latency_hist_seqr::total        65126                      
system.ruby.Locked_RMW_Write.hit_latency_hist_seqr::bucket_size            1                      
system.ruby.Locked_RMW_Write.hit_latency_hist_seqr::max_bucket            9                      
system.ruby.Locked_RMW_Write.hit_latency_hist_seqr::samples       215265                      
system.ruby.Locked_RMW_Write.hit_latency_hist_seqr |      215265    100.00%    100.00% |           0      0.00%    100.00% |           0      0.00%    100.00% |           0      0.00%    100.00% |           0      0.00%    100.00% |           0      0.00%    100.00% |           0      0.00%    100.00% |           0      0.00%    100.00% |           0      0.00%    100.00% |           0      0.00%    100.00%
system.ruby.Locked_RMW_Write.hit_latency_hist_seqr::total       215265                      
system.ruby.Locked_RMW_Write.latency_hist_seqr::bucket_size            1                      
system.ruby.Locked_RMW_Write.latency_hist_seqr::max_bucket            9                      
system.ruby.Locked_RMW_Write.latency_hist_seqr::samples       215265                      
system.ruby.Locked_RMW_Write.latency_hist_seqr |      215265    100.00%    100.00% |           0      0.00%    100.00% |           0      0.00%    100.00% |           0      0.00%    100.00% |           0      0.00%    100.00% |           0      0.00%    100.00% |           0      0.00%    100.00% |           0      0.00%    100.00% |           0      0.00%    100.00% |           0      0.00%    100.00%
system.ruby.Locked_RMW_Write.latency_hist_seqr::total       215265                      
system.ruby.RMW_Read.hit_latency_hist_seqr::bucket_size            1                      
system.ruby.RMW_Read.hit_latency_hist_seqr::max_bucket            9                      
system.ruby.RMW_Read.hit_latency_hist_seqr::samples     52428997                      
system.ruby.RMW_Read.hit_latency_hist_seqr |    52428997    100.00%    100.00% |           0      0.00%    100.00% |           0      0.00%    100.00% |           0      0.00%    100.00% |           0      0.00%    100.00% |           0      0.00%    100.00% |           0      0.00%    100.00% |           0      0.00%    100.00% |           0      0.00%    100.00% |           0      0.00%    100.00%
system.ruby.RMW_Read.hit_latency_hist_seqr::total     52428997                      
system.ruby.RMW_Read.latency_hist_seqr::bucket_size            1                      
system.ruby.RMW_Read.latency_hist_seqr::max_bucket            9                      
system.ruby.RMW_Read.latency_hist_seqr::samples     53360097                      
system.ruby.RMW_Read.latency_hist_seqr   |    53360097    100.00%    100.00% |           0      0.00%    100.00% |           0      0.00%    100.00% |           0      0.00%    100.00% |           0      0.00%    100.00% |           0      0.00%    100.00% |           0      0.00%    100.00% |           0      0.00%    100.00% |           0      0.00%    100.00% |           0      0.00%    100.00%
system.ruby.RMW_Read.latency_hist_seqr::total     53360097                      
system.ruby.RMW_Read.miss_latency_hist_seqr::bucket_size            1                      
system.ruby.RMW_Read.miss_latency_hist_seqr::max_bucket            9                      
system.ruby.RMW_Read.miss_latency_hist_seqr::samples       931100                      
system.ruby.RMW_Read.miss_latency_hist_seqr |      931100    100.00%    100.00% |           0      0.00%    100.00% |           0      0.00%    100.00% |           0      0.00%    100.00% |           0      0.00%    100.00% |           0      0.00%    100.00% |           0      0.00%    100.00% |           0      0.00%    100.00% |           0      0.00%    100.00% |           0      0.00%    100.00%
system.ruby.RMW_Read.miss_latency_hist_seqr::total       931100                      
system.ruby.ST.hit_latency_hist_seqr::bucket_size            1                      
system.ruby.ST.hit_latency_hist_seqr::max_bucket            9                      
system.ruby.ST.hit_latency_hist_seqr::samples    219091681                      
system.ruby.ST.hit_latency_hist_seqr     |   219091681    100.00%    100.00% |           0      0.00%    100.00% |           0      0.00%    100.00% |           0      0.00%    100.00% |           0      0.00%    100.00% |           0      0.00%    100.00% |           0      0.00%    100.00% |           0      0.00%    100.00% |           0      0.00%    100.00% |           0      0.00%    100.00%
system.ruby.ST.hit_latency_hist_seqr::total    219091681                      
system.ruby.ST.latency_hist_seqr::bucket_size            1                      
system.ruby.ST.latency_hist_seqr::max_bucket            9                      
system.ruby.ST.latency_hist_seqr::samples    222628621                      
system.ruby.ST.latency_hist_seqr         |   222628621    100.00%    100.00% |           0      0.00%    100.00% |           0      0.00%    100.00% |           0      0.00%    100.00% |           0      0.00%    100.00% |           0      0.00%    100.00% |           0      0.00%    100.00% |           0      0.00%    100.00% |           0      0.00%    100.00% |           0      0.00%    100.00%
system.ruby.ST.latency_hist_seqr::total     222628621                      
system.ruby.ST.miss_latency_hist_seqr::bucket_size            1                      
system.ruby.ST.miss_latency_hist_seqr::max_bucket            9                      
system.ruby.ST.miss_latency_hist_seqr::samples      3536940                      
system.ruby.ST.miss_latency_hist_seqr    |     3536940    100.00%    100.00% |           0      0.00%    100.00% |           0      0.00%    100.00% |           0      0.00%    100.00% |           0      0.00%    100.00% |           0      0.00%    100.00% |           0      0.00%    100.00% |           0      0.00%    100.00% |           0      0.00%    100.00% |           0      0.00%    100.00%
system.ruby.ST.miss_latency_hist_seqr::total      3536940                      
system.ruby.dir_cntrl0.fwdFrom.avg_buf_msgs     0.007517                       # Average number of messages in buffer
system.ruby.dir_cntrl0.fwdFrom.avg_stall_time  2999.995931                       # Average number of cycles messages are stalled in this MB
system.ruby.dir_cntrl0.reqTo.avg_buf_msgs     0.002611                       # Average number of messages in buffer
system.ruby.dir_cntrl0.reqTo.avg_stall_time  5297.223617                       # Average number of cycles messages are stalled in this MB
system.ruby.dir_cntrl0.requestToMemory.avg_buf_msgs     0.001729                       # Average number of messages in buffer
system.ruby.dir_cntrl0.requestToMemory.avg_stall_time   499.999998                       # Average number of cycles messages are stalled in this MB
system.ruby.dir_cntrl0.respFrom.avg_buf_msgs     0.008088                       # Average number of messages in buffer
system.ruby.dir_cntrl0.respFrom.avg_stall_time  3000.866922                       # Average number of cycles messages are stalled in this MB
system.ruby.dir_cntrl0.respTo.avg_buf_msgs     0.000005                       # Average number of messages in buffer
system.ruby.dir_cntrl0.respTo.avg_stall_time 12499.362079                       # Average number of cycles messages are stalled in this MB
system.ruby.dir_cntrl0.responseFromMemory.avg_buf_msgs     0.001733                       # Average number of messages in buffer
system.ruby.dir_cntrl0.responseFromMemory.avg_stall_time   499.999971                       # Average number of cycles messages are stalled in this MB
system.ruby.dir_cntrl1.fwdFrom.avg_buf_msgs     0.007462                       # Average number of messages in buffer
system.ruby.dir_cntrl1.fwdFrom.avg_stall_time  2999.997228                       # Average number of cycles messages are stalled in this MB
system.ruby.dir_cntrl1.reqTo.avg_buf_msgs     0.002561                       # Average number of messages in buffer
system.ruby.dir_cntrl1.reqTo.avg_stall_time  5262.338662                       # Average number of cycles messages are stalled in this MB
system.ruby.dir_cntrl1.requestToMemory.avg_buf_msgs     0.001671                       # Average number of messages in buffer
system.ruby.dir_cntrl1.requestToMemory.avg_stall_time   499.999999                       # Average number of cycles messages are stalled in this MB
system.ruby.dir_cntrl1.respFrom.avg_buf_msgs     0.007883                       # Average number of messages in buffer
system.ruby.dir_cntrl1.respFrom.avg_stall_time  3000.982024                       # Average number of cycles messages are stalled in this MB
system.ruby.dir_cntrl1.respTo.avg_buf_msgs     0.000009                       # Average number of messages in buffer
system.ruby.dir_cntrl1.respTo.avg_stall_time 11572.895258                       # Average number of cycles messages are stalled in this MB
system.ruby.dir_cntrl1.responseFromMemory.avg_buf_msgs     0.001675                       # Average number of messages in buffer
system.ruby.dir_cntrl1.responseFromMemory.avg_stall_time   499.999971                       # Average number of cycles messages are stalled in this MB
system.ruby.dir_cntrl2.fwdFrom.avg_buf_msgs     0.007470                       # Average number of messages in buffer
system.ruby.dir_cntrl2.fwdFrom.avg_stall_time  2999.981766                       # Average number of cycles messages are stalled in this MB
system.ruby.dir_cntrl2.reqTo.avg_buf_msgs     0.002559                       # Average number of messages in buffer
system.ruby.dir_cntrl2.reqTo.avg_stall_time  5006.960593                       # Average number of cycles messages are stalled in this MB
system.ruby.dir_cntrl2.requestToMemory.avg_buf_msgs     0.001670                       # Average number of messages in buffer
system.ruby.dir_cntrl2.requestToMemory.avg_stall_time   499.999896                       # Average number of cycles messages are stalled in this MB
system.ruby.dir_cntrl2.respFrom.avg_buf_msgs     0.007885                       # Average number of messages in buffer
system.ruby.dir_cntrl2.respFrom.avg_stall_time  3001.768131                       # Average number of cycles messages are stalled in this MB
system.ruby.dir_cntrl2.respTo.avg_buf_msgs     0.000012                       # Average number of messages in buffer
system.ruby.dir_cntrl2.respTo.avg_stall_time 12031.861079                       # Average number of cycles messages are stalled in this MB
system.ruby.dir_cntrl2.responseFromMemory.avg_buf_msgs     0.001674                       # Average number of messages in buffer
system.ruby.dir_cntrl2.responseFromMemory.avg_stall_time   499.999869                       # Average number of cycles messages are stalled in this MB
system.ruby.dir_cntrl3.fwdFrom.avg_buf_msgs     0.006933                       # Average number of messages in buffer
system.ruby.dir_cntrl3.fwdFrom.avg_stall_time  2999.996340                       # Average number of cycles messages are stalled in this MB
system.ruby.dir_cntrl3.reqTo.avg_buf_msgs     0.002382                       # Average number of messages in buffer
system.ruby.dir_cntrl3.reqTo.avg_stall_time  5139.924369                       # Average number of cycles messages are stalled in this MB
system.ruby.dir_cntrl3.requestToMemory.avg_buf_msgs     0.001577                       # Average number of messages in buffer
system.ruby.dir_cntrl3.requestToMemory.avg_stall_time   499.999998                       # Average number of cycles messages are stalled in this MB
system.ruby.dir_cntrl3.respFrom.avg_buf_msgs     0.007370                       # Average number of messages in buffer
system.ruby.dir_cntrl3.respFrom.avg_stall_time  3001.974654                       # Average number of cycles messages are stalled in this MB
system.ruby.dir_cntrl3.respTo.avg_buf_msgs     0.000003                       # Average number of messages in buffer
system.ruby.dir_cntrl3.respTo.avg_stall_time 13382.611467                       # Average number of cycles messages are stalled in this MB
system.ruby.dir_cntrl3.responseFromMemory.avg_buf_msgs     0.001580                       # Average number of messages in buffer
system.ruby.dir_cntrl3.responseFromMemory.avg_stall_time   499.999971                       # Average number of cycles messages are stalled in this MB
system.ruby.dma_cntrl0.cache.demand_accesses            0                       # Number of cache demand accesses
system.ruby.dma_cntrl0.cache.demand_hits            0                       # Number of cache demand hits
system.ruby.dma_cntrl0.cache.demand_misses            0                       # Number of cache demand misses
system.ruby.dma_cntrl0.fully_busy_cycles         6379                       # cycles for which number of transistions == max transitions
system.ruby.dma_cntrl0.fwdFrom.avg_buf_msgs     0.000002                       # Average number of messages in buffer
system.ruby.dma_cntrl0.fwdFrom.avg_stall_time  5961.199253                       # Average number of cycles messages are stalled in this MB
system.ruby.dma_cntrl0.mandatoryQueue.avg_buf_msgs     0.000104                       # Average number of messages in buffer
system.ruby.dma_cntrl0.mandatoryQueue.avg_stall_time 112141.470806                       # Average number of cycles messages are stalled in this MB
system.ruby.dma_cntrl0.reqTo.avg_buf_msgs     0.000111                       # Average number of messages in buffer
system.ruby.dma_cntrl0.reqTo.avg_stall_time  6799.248983                       # Average number of cycles messages are stalled in this MB
system.ruby.dma_cntrl0.respFrom.avg_buf_msgs     0.000002                       # Average number of messages in buffer
system.ruby.dma_cntrl0.respFrom.avg_stall_time 92842.747488                       # Average number of cycles messages are stalled in this MB
system.ruby.dma_cntrl0.respTo.avg_buf_msgs     0.000000                       # Average number of messages in buffer
system.ruby.dma_cntrl0.respTo.avg_stall_time   794.664980                       # Average number of cycles messages are stalled in this MB
system.ruby.hit_latency_hist_seqr::bucket_size            1                      
system.ruby.hit_latency_hist_seqr::max_bucket            9                      
system.ruby.hit_latency_hist_seqr::samples   3319920196                      
system.ruby.hit_latency_hist_seqr        |  3319920196    100.00%    100.00% |           0      0.00%    100.00% |           0      0.00%    100.00% |           0      0.00%    100.00% |           0      0.00%    100.00% |           0      0.00%    100.00% |           0      0.00%    100.00% |           0      0.00%    100.00% |           0      0.00%    100.00% |           0      0.00%    100.00%
system.ruby.hit_latency_hist_seqr::total   3319920196                      
system.ruby.io_controller.cache.demand_accesses            0                       # Number of cache demand accesses
system.ruby.io_controller.cache.demand_hits            0                       # Number of cache demand hits
system.ruby.io_controller.cache.demand_misses            0                       # Number of cache demand misses
system.ruby.l1_cntrl0.cache.demand_accesses            0                       # Number of cache demand accesses
system.ruby.l1_cntrl0.cache.demand_hits             0                       # Number of cache demand hits
system.ruby.l1_cntrl0.cache.demand_misses            0                       # Number of cache demand misses
system.ruby.l1_cntrl0.fully_busy_cycles          1343                       # cycles for which number of transistions == max transitions
system.ruby.l1_cntrl0.fwdFrom.avg_buf_msgs     7.011332                       # Average number of messages in buffer
system.ruby.l1_cntrl0.fwdFrom.avg_stall_time  6220.527363                       # Average number of cycles messages are stalled in this MB
system.ruby.l1_cntrl0.mandatoryQueue.avg_buf_msgs     0.271591                       # Average number of messages in buffer
system.ruby.l1_cntrl0.mandatoryQueue.avg_stall_time  2270.206815                       # Average number of cycles messages are stalled in this MB
system.ruby.l1_cntrl0.reqTo.avg_buf_msgs     0.003003                       # Average number of messages in buffer
system.ruby.l1_cntrl0.reqTo.avg_stall_time   500.084955                       # Average number of cycles messages are stalled in this MB
system.ruby.l1_cntrl0.respFrom.avg_buf_msgs     0.001571                       # Average number of messages in buffer
system.ruby.l1_cntrl0.respFrom.avg_stall_time 16488.885238                       # Average number of cycles messages are stalled in this MB
system.ruby.l1_cntrl0.respTo.avg_buf_msgs     0.000026                       # Average number of messages in buffer
system.ruby.l1_cntrl0.respTo.avg_stall_time   999.988441                       # Average number of cycles messages are stalled in this MB
system.ruby.l1_cntrl1.cache.demand_accesses            0                       # Number of cache demand accesses
system.ruby.l1_cntrl1.cache.demand_hits             0                       # Number of cache demand hits
system.ruby.l1_cntrl1.cache.demand_misses            0                       # Number of cache demand misses
system.ruby.l1_cntrl1.fully_busy_cycles          1100                       # cycles for which number of transistions == max transitions
system.ruby.l1_cntrl1.fwdFrom.avg_buf_msgs     7.853132                       # Average number of messages in buffer
system.ruby.l1_cntrl1.fwdFrom.avg_stall_time  6888.853358                       # Average number of cycles messages are stalled in this MB
system.ruby.l1_cntrl1.mandatoryQueue.avg_buf_msgs     0.264434                       # Average number of messages in buffer
system.ruby.l1_cntrl1.mandatoryQueue.avg_stall_time  1690.246356                       # Average number of cycles messages are stalled in this MB
system.ruby.l1_cntrl1.reqTo.avg_buf_msgs     0.001975                       # Average number of messages in buffer
system.ruby.l1_cntrl1.reqTo.avg_stall_time   500.080154                       # Average number of cycles messages are stalled in this MB
system.ruby.l1_cntrl1.respFrom.avg_buf_msgs     0.001020                       # Average number of messages in buffer
system.ruby.l1_cntrl1.respFrom.avg_stall_time 16960.333288                       # Average number of cycles messages are stalled in this MB
system.ruby.l1_cntrl1.respTo.avg_buf_msgs     0.000024                       # Average number of messages in buffer
system.ruby.l1_cntrl1.respTo.avg_stall_time   999.872856                       # Average number of cycles messages are stalled in this MB
system.ruby.l1_cntrl2.cache.demand_accesses            0                       # Number of cache demand accesses
system.ruby.l1_cntrl2.cache.demand_hits             0                       # Number of cache demand hits
system.ruby.l1_cntrl2.cache.demand_misses            0                       # Number of cache demand misses
system.ruby.l1_cntrl2.fully_busy_cycles          1018                       # cycles for which number of transistions == max transitions
system.ruby.l1_cntrl2.fwdFrom.avg_buf_msgs     2.434077                       # Average number of messages in buffer
system.ruby.l1_cntrl2.fwdFrom.avg_stall_time  6503.574126                       # Average number of cycles messages are stalled in this MB
system.ruby.l1_cntrl2.mandatoryQueue.avg_buf_msgs     0.323563                       # Average number of messages in buffer
system.ruby.l1_cntrl2.mandatoryQueue.avg_stall_time  2063.304843                       # Average number of cycles messages are stalled in this MB
system.ruby.l1_cntrl2.reqTo.avg_buf_msgs     0.002468                       # Average number of messages in buffer
system.ruby.l1_cntrl2.reqTo.avg_stall_time   499.873422                       # Average number of cycles messages are stalled in this MB
system.ruby.l1_cntrl2.respFrom.avg_buf_msgs     0.001272                       # Average number of messages in buffer
system.ruby.l1_cntrl2.respFrom.avg_stall_time 16236.724486                       # Average number of cycles messages are stalled in this MB
system.ruby.l1_cntrl2.respTo.avg_buf_msgs     0.000021                       # Average number of messages in buffer
system.ruby.l1_cntrl2.respTo.avg_stall_time   999.463191                       # Average number of cycles messages are stalled in this MB
system.ruby.l1_cntrl3.cache.demand_accesses            0                       # Number of cache demand accesses
system.ruby.l1_cntrl3.cache.demand_hits             0                       # Number of cache demand hits
system.ruby.l1_cntrl3.cache.demand_misses            0                       # Number of cache demand misses
system.ruby.l1_cntrl3.fully_busy_cycles          1028                       # cycles for which number of transistions == max transitions
system.ruby.l1_cntrl3.fwdFrom.avg_buf_msgs     6.678626                       # Average number of messages in buffer
system.ruby.l1_cntrl3.fwdFrom.avg_stall_time  6725.841681                       # Average number of cycles messages are stalled in this MB
system.ruby.l1_cntrl3.mandatoryQueue.avg_buf_msgs     0.356235                       # Average number of messages in buffer
system.ruby.l1_cntrl3.mandatoryQueue.avg_stall_time  2211.416707                       # Average number of cycles messages are stalled in this MB
system.ruby.l1_cntrl3.reqTo.avg_buf_msgs     0.002629                       # Average number of messages in buffer
system.ruby.l1_cntrl3.reqTo.avg_stall_time   500.070644                       # Average number of cycles messages are stalled in this MB
system.ruby.l1_cntrl3.respFrom.avg_buf_msgs     0.001349                       # Average number of messages in buffer
system.ruby.l1_cntrl3.respFrom.avg_stall_time 16551.746787                       # Average number of cycles messages are stalled in this MB
system.ruby.l1_cntrl3.respTo.avg_buf_msgs     0.000021                       # Average number of messages in buffer
system.ruby.l1_cntrl3.respTo.avg_stall_time  1000.155766                       # Average number of cycles messages are stalled in this MB
system.ruby.latency_hist_seqr::bucket_size            1                      
system.ruby.latency_hist_seqr::max_bucket            9                      
system.ruby.latency_hist_seqr::samples     3335972419                      
system.ruby.latency_hist_seqr            |  3335972419    100.00%    100.00% |           0      0.00%    100.00% |           0      0.00%    100.00% |           0      0.00%    100.00% |           0      0.00%    100.00% |           0      0.00%    100.00% |           0      0.00%    100.00% |           0      0.00%    100.00% |           0      0.00%    100.00% |           0      0.00%    100.00%
system.ruby.latency_hist_seqr::total       3335972419                      
system.ruby.miss_latency_hist_seqr::bucket_size            1                      
system.ruby.miss_latency_hist_seqr::max_bucket            9                      
system.ruby.miss_latency_hist_seqr::samples     16052223                      
system.ruby.miss_latency_hist_seqr       |    16052223    100.00%    100.00% |           0      0.00%    100.00% |           0      0.00%    100.00% |           0      0.00%    100.00% |           0      0.00%    100.00% |           0      0.00%    100.00% |           0      0.00%    100.00% |           0      0.00%    100.00% |           0      0.00%    100.00% |           0      0.00%    100.00%
system.ruby.miss_latency_hist_seqr::total     16052223                      
system.ruby.network.average_flit_latency    16.422847                      
system.ruby.network.average_flit_network_latency    12.114126                      
system.ruby.network.average_flit_queueing_latency     4.308721                      
system.ruby.network.average_flit_vnet_latency |   15.008377                       |    5.002877                       |    9.554412                      
system.ruby.network.average_flit_vqueue_latency |    5.994237                       |    6.000001                       |    1.017931                      
system.ruby.network.average_hops             0.992757                      
system.ruby.network.average_packet_latency    15.107003                      
system.ruby.network.average_packet_network_latency    11.599580                      
system.ruby.network.average_packet_queueing_latency     3.507423                      
system.ruby.network.average_packet_vnet_latency |   24.905827                       |    5.002877                       |    7.881272                      
system.ruby.network.average_packet_vqueue_latency |    5.971713                       |    6.000001                       |    1.011301                      
system.ruby.network.avg_link_utilization     0.140267                      
system.ruby.network.avg_vc_load          |    0.058295     41.56%     41.56% |    0.006766      4.82%     46.38% |    0.006535      4.66%     51.04% |    0.006522      4.65%     55.69% |    0.011018      7.85%     63.55% |    0.001232      0.88%     64.43% |    0.001226      0.87%     65.30% |    0.001225      0.87%     66.17% |    0.035115     25.03%     91.21% |    0.004389      3.13%     94.34% |    0.003972      2.83%     97.17% |    0.003972      2.83%    100.00%
system.ruby.network.avg_vc_load::total       0.140267                      
system.ruby.network.ext_in_link_utilization    144733252                      
system.ruby.network.ext_out_link_utilization    144733252                      
system.ruby.network.flit_network_latency |  1209051324                       |    75718175                       |   468547353                      
system.ruby.network.flit_queueing_latency |   482886324                       |    90809578                       |    49919245                      
system.ruby.network.flits_injected       |    80558432     55.66%     55.66% |    15134927     10.46%     66.12% |    49039893     33.88%    100.00%
system.ruby.network.flits_injected::total    144733252                      
system.ruby.network.flits_received       |    80558432     55.66%     55.66% |    15134927     10.46%     66.12% |    49039893     33.88%    100.00%
system.ruby.network.flits_received::total    144733252                      
system.ruby.network.int_link_utilization    143684992                      
system.ruby.network.packet_network_latency |   403330239                       |    75718175                       |   245116419                      
system.ruby.network.packet_queueing_latency |    96707192                       |    90809578                       |    31452597                      
system.ruby.network.packets_injected     |    16194212     25.94%     25.94% |    15134927     24.24%     50.18% |    31101125     49.82%    100.00%
system.ruby.network.packets_injected::total     62430264                      
system.ruby.network.packets_received     |    16194212     25.94%     25.94% |    15134927     24.24%     50.18% |    31101125     49.82%    100.00%
system.ruby.network.packets_received::total     62430264                      
system.ruby.network.routers0.buffer_reads     77188695                      
system.ruby.network.routers0.buffer_writes     77188695                      
system.ruby.network.routers0.crossbar_activity     77188695                      
system.ruby.network.routers0.sw_input_arbiter_activity     77308580                      
system.ruby.network.routers0.sw_output_arbiter_activity     77188695                      
system.ruby.network.routers1.buffer_reads     67237706                      
system.ruby.network.routers1.buffer_writes     67237706                      
system.ruby.network.routers1.crossbar_activity     67237706                      
system.ruby.network.routers1.sw_input_arbiter_activity     67333342                      
system.ruby.network.routers1.sw_output_arbiter_activity     67237706                      
system.ruby.network.routers2.buffer_reads     72959885                      
system.ruby.network.routers2.buffer_writes     72959885                      
system.ruby.network.routers2.crossbar_activity     72959885                      
system.ruby.network.routers2.sw_input_arbiter_activity     73059191                      
system.ruby.network.routers2.sw_output_arbiter_activity     72959885                      
system.ruby.network.routers3.buffer_reads     71031958                      
system.ruby.network.routers3.buffer_writes     71031958                      
system.ruby.network.routers3.crossbar_activity     71031958                      
system.ruby.network.routers3.sw_input_arbiter_activity     71120665                      
system.ruby.network.routers3.sw_output_arbiter_activity     71031958                      
system.ruby.outstanding_req_hist_seqr::bucket_size            1                      
system.ruby.outstanding_req_hist_seqr::max_bucket            9                      
system.ruby.outstanding_req_hist_seqr::samples   3335972419                      
system.ruby.outstanding_req_hist_seqr::mean     1.000530                      
system.ruby.outstanding_req_hist_seqr::gmean     1.000367                      
system.ruby.outstanding_req_hist_seqr::stdev     0.023017                      
system.ruby.outstanding_req_hist_seqr    |           0      0.00%      0.00% |  3334204073     99.95%     99.95% |     1768346      0.05%    100.00% |           0      0.00%    100.00% |           0      0.00%    100.00% |           0      0.00%    100.00% |           0      0.00%    100.00% |           0      0.00%    100.00% |           0      0.00%    100.00% |           0      0.00%    100.00%
system.ruby.outstanding_req_hist_seqr::total   3335972419                      
system.switch_cpus0.Branches                 88571348                       # Number of branches fetched
system.switch_cpus0.committedInsts          414520523                       # Number of instructions committed
system.switch_cpus0.committedOps            771635894                       # Number of ops (including micro ops) committed
system.switch_cpus0.dtb.rdAccesses          115520840                       # TLB accesses on read requests
system.switch_cpus0.dtb.rdMisses               401396                       # TLB misses on read requests
system.switch_cpus0.dtb.wrAccesses           48944576                       # TLB accesses on write requests
system.switch_cpus0.dtb.wrMisses               272032                       # TLB misses on write requests
system.switch_cpus0.idle_fraction            0.359548                       # Percentage of idle cycles
system.switch_cpus0.itb.rdAccesses                  0                       # TLB accesses on read requests
system.switch_cpus0.itb.rdMisses                    0                       # TLB misses on read requests
system.switch_cpus0.itb.wrAccesses          551264626                       # TLB accesses on write requests
system.switch_cpus0.itb.wrMisses                15300                       # TLB misses on write requests
system.switch_cpus0.kern.inst.arm                   0                       # number of arm instructions executed
system.switch_cpus0.kern.inst.quiesce               0                       # number of quiesce instructions executed
system.switch_cpus0.not_idle_fraction        0.640452                       # Percentage of non-idle cycles
system.switch_cpus0.numCycles              3088048052                       # number of cpu cycles simulated
system.switch_cpus0.numWorkItemsCompleted            0                       # number of work items this cpu completed
system.switch_cpus0.numWorkItemsStarted             0                       # number of work items this cpu started
system.switch_cpus0.num_busy_cycles      1977747050.495180                       # Number of busy cycles
system.switch_cpus0.num_cc_register_reads    441785688                       # number of times the CC registers were read
system.switch_cpus0.num_cc_register_writes    294874011                       # number of times the CC registers were written
system.switch_cpus0.num_conditional_control_insts     78772892                       # number of instructions that are conditional controls
system.switch_cpus0.num_fp_alu_accesses          1242                       # Number of float alu accesses
system.switch_cpus0.num_fp_insts                 1242                       # number of float instructions
system.switch_cpus0.num_fp_register_reads          960                       # number of times the floating registers were read
system.switch_cpus0.num_fp_register_writes          646                       # number of times the floating registers were written
system.switch_cpus0.num_func_calls            4842707                       # number of times a function call or return occured
system.switch_cpus0.num_idle_cycles      1110301001.504820                       # Number of idle cycles
system.switch_cpus0.num_int_alu_accesses    769031929                       # Number of integer alu accesses
system.switch_cpus0.num_int_insts           769031929                       # number of integer instructions
system.switch_cpus0.num_int_register_reads   1468415858                       # number of times the integer registers were read
system.switch_cpus0.num_int_register_writes    634055552                       # number of times the integer registers were written
system.switch_cpus0.num_load_insts          114828503                       # Number of load instructions
system.switch_cpus0.num_mem_refs            163398647                       # number of memory refs
system.switch_cpus0.num_store_insts          48570144                       # Number of store instructions
system.switch_cpus0.num_vec_alu_accesses            0                       # Number of vector alu accesses
system.switch_cpus0.num_vec_insts                   0                       # number of vector instructions
system.switch_cpus0.num_vec_register_reads            0                       # number of times the vector registers were read
system.switch_cpus0.num_vec_register_writes            0                       # number of times the vector registers were written
system.switch_cpus0.op_class::No_OpClass      1487706      0.19%      0.19% # Class of executed instruction
system.switch_cpus0.op_class::IntAlu        605731272     78.49%     78.69% # Class of executed instruction
system.switch_cpus0.op_class::IntMult          677392      0.09%     78.77% # Class of executed instruction
system.switch_cpus0.op_class::IntDiv           412216      0.05%     78.83% # Class of executed instruction
system.switch_cpus0.op_class::FloatAdd             40      0.00%     78.83% # Class of executed instruction
system.switch_cpus0.op_class::FloatCmp              0      0.00%     78.83% # Class of executed instruction
system.switch_cpus0.op_class::FloatCvt             96      0.00%     78.83% # Class of executed instruction
system.switch_cpus0.op_class::FloatMult             0      0.00%     78.83% # Class of executed instruction
system.switch_cpus0.op_class::FloatMultAcc            0      0.00%     78.83% # Class of executed instruction
system.switch_cpus0.op_class::FloatDiv              0      0.00%     78.83% # Class of executed instruction
system.switch_cpus0.op_class::FloatMisc             0      0.00%     78.83% # Class of executed instruction
system.switch_cpus0.op_class::FloatSqrt             0      0.00%     78.83% # Class of executed instruction
system.switch_cpus0.op_class::SimdAdd              22      0.00%     78.83% # Class of executed instruction
system.switch_cpus0.op_class::SimdAddAcc            0      0.00%     78.83% # Class of executed instruction
system.switch_cpus0.op_class::SimdAlu              50      0.00%     78.83% # Class of executed instruction
system.switch_cpus0.op_class::SimdCmp               0      0.00%     78.83% # Class of executed instruction
system.switch_cpus0.op_class::SimdCvt              44      0.00%     78.83% # Class of executed instruction
system.switch_cpus0.op_class::SimdMisc             28      0.00%     78.83% # Class of executed instruction
system.switch_cpus0.op_class::SimdMult              0      0.00%     78.83% # Class of executed instruction
system.switch_cpus0.op_class::SimdMultAcc            0      0.00%     78.83% # Class of executed instruction
system.switch_cpus0.op_class::SimdShift             0      0.00%     78.83% # Class of executed instruction
system.switch_cpus0.op_class::SimdShiftAcc            0      0.00%     78.83% # Class of executed instruction
system.switch_cpus0.op_class::SimdDiv               0      0.00%     78.83% # Class of executed instruction
system.switch_cpus0.op_class::SimdSqrt              0      0.00%     78.83% # Class of executed instruction
system.switch_cpus0.op_class::SimdFloatAdd            6      0.00%     78.83% # Class of executed instruction
system.switch_cpus0.op_class::SimdFloatAlu            0      0.00%     78.83% # Class of executed instruction
system.switch_cpus0.op_class::SimdFloatCmp            0      0.00%     78.83% # Class of executed instruction
system.switch_cpus0.op_class::SimdFloatCvt           12      0.00%     78.83% # Class of executed instruction
system.switch_cpus0.op_class::SimdFloatDiv            0      0.00%     78.83% # Class of executed instruction
system.switch_cpus0.op_class::SimdFloatMisc            0      0.00%     78.83% # Class of executed instruction
system.switch_cpus0.op_class::SimdFloatMult            6      0.00%     78.83% # Class of executed instruction
system.switch_cpus0.op_class::SimdFloatMultAcc            0      0.00%     78.83% # Class of executed instruction
system.switch_cpus0.op_class::SimdFloatSqrt            0      0.00%     78.83% # Class of executed instruction
system.switch_cpus0.op_class::SimdReduceAdd            0      0.00%     78.83% # Class of executed instruction
system.switch_cpus0.op_class::SimdReduceAlu            0      0.00%     78.83% # Class of executed instruction
system.switch_cpus0.op_class::SimdReduceCmp            0      0.00%     78.83% # Class of executed instruction
system.switch_cpus0.op_class::SimdFloatReduceAdd            0      0.00%     78.83% # Class of executed instruction
system.switch_cpus0.op_class::SimdFloatReduceCmp            0      0.00%     78.83% # Class of executed instruction
system.switch_cpus0.op_class::SimdAes               0      0.00%     78.83% # Class of executed instruction
system.switch_cpus0.op_class::SimdAesMix            0      0.00%     78.83% # Class of executed instruction
system.switch_cpus0.op_class::SimdSha1Hash            0      0.00%     78.83% # Class of executed instruction
system.switch_cpus0.op_class::SimdSha1Hash2            0      0.00%     78.83% # Class of executed instruction
system.switch_cpus0.op_class::SimdSha256Hash            0      0.00%     78.83% # Class of executed instruction
system.switch_cpus0.op_class::SimdSha256Hash2            0      0.00%     78.83% # Class of executed instruction
system.switch_cpus0.op_class::SimdShaSigma2            0      0.00%     78.83% # Class of executed instruction
[...]
system.mem_ctrls1.llc.tags.sampled_refs             0                       # Sample count of references to valid blocks.
system.mem_ctrls1.llc.tags.avg_refs               nan                       # Average number of references to valid blocks.
system.mem_ctrls1.llc.tags.warmup_cycle  100918828272500                       # Cycle when the warmup percentage was hit.
system.mem_ctrls1.llc.tags.occ_blocks::.ruby.dir_cntrl1 114772.815315                       # Average occupied blocks per requestor
system.mem_ctrls1.llc.tags.occ_percent::.ruby.dir_cntrl1     0.437824                       # Average percentage of cache occupancy
system.mem_ctrls1.llc.tags.occ_percent::total     0.437824                       # Average percentage of cache occupancy
system.mem_ctrls1.llc.tags.occ_task_id_blocks::1024       186888                       # Occupied blocks per task id
system.mem_ctrls1.llc.tags.age_task_id_blocks_1024::0            3                       # Occupied blocks per task id
system.mem_ctrls1.llc.tags.age_task_id_blocks_1024::3           84                       # Occupied blocks per task id
system.mem_ctrls1.llc.tags.age_task_id_blocks_1024::4       186801                       # Occupied blocks per task id
system.mem_ctrls1.llc.tags.occ_task_id_percent::1024     0.712921                       # Percentage of cache occupancy per task id
system.mem_ctrls1.llc.tags.tag_accesses      82754328                       # Number of tag accesses
system.mem_ctrls1.llc.tags.data_accesses      5160465                       # Number of data accesses
system.mem_ctrls1.llc.tags.power_state.pwrStateResidencyTicks::UNDEFINED 102462852348001                       # Cumulative time (in ticks) in various power states
system.mem_ctrls1.rank1.actEnergy            98267820                       # Energy for activate commands per rank (pJ)
system.mem_ctrls1.rank1.preEnergy            52230585                       # Energy for precharge commands per rank (pJ)
system.mem_ctrls1.rank1.readEnergy          664148520                       # Energy for read commands per rank (pJ)
system.mem_ctrls1.rank1.writeEnergy                 0                       # Energy for write commands per rank (pJ)
system.mem_ctrls1.rank1.refreshEnergy    121883726640.000015                       # Energy for refresh commands per rank (pJ)
system.mem_ctrls1.rank1.actBackEnergy     52224447090                       # Energy for active background per rank (pJ)
system.mem_ctrls1.rank1.preBackEnergy    548926410240                       # Energy for precharge background per rank (pJ)
system.mem_ctrls1.rank1.actPowerDownEnergy            0                       # Energy for active power-down per rank (pJ)
system.mem_ctrls1.rank1.prePowerDownEnergy            0                       # Energy for precharge power-down per rank (pJ)
system.mem_ctrls1.rank1.selfRefreshEnergy            0                       # Energy for self refresh per rank (pJ)
system.mem_ctrls1.rank1.totalEnergy      723849230895                       # Total energy per rank (pJ)
system.mem_ctrls1.rank1.averagePower       468.806938                       # Core power per rank (mW)
system.mem_ctrls1.rank1.totalIdleTime               0                       # Total Idle time Per DRAM Rank
system.mem_ctrls1.rank1.memoryStateTime::IDLE 1426610940752                       # Time in different power states
system.mem_ctrls1.rank1.memoryStateTime::REF  51558260000                       # Time in different power states
system.mem_ctrls1.rank1.memoryStateTime::SREF            0                       # Time in different power states
system.mem_ctrls1.rank1.memoryStateTime::PRE_PDN            0                       # Time in different power states
system.mem_ctrls1.rank1.memoryStateTime::ACT  65854942749                       # Time in different power states
system.mem_ctrls1.rank1.memoryStateTime::ACT_PDN            0                       # Time in different power states
system.mem_ctrls1.rank0.actEnergy            99824340                       # Energy for activate commands per rank (pJ)
system.mem_ctrls1.rank0.preEnergy            53057895                       # Energy for precharge commands per rank (pJ)
system.mem_ctrls1.rank0.readEnergy          670231800                       # Energy for read commands per rank (pJ)
system.mem_ctrls1.rank0.writeEnergy                 0                       # Energy for write commands per rank (pJ)
system.mem_ctrls1.rank0.refreshEnergy    121883726640.000015                       # Energy for refresh commands per rank (pJ)
system.mem_ctrls1.rank0.actBackEnergy     52582717740                       # Energy for active background per rank (pJ)
system.mem_ctrls1.rank0.preBackEnergy    548625082080                       # Energy for precharge background per rank (pJ)
system.mem_ctrls1.rank0.actPowerDownEnergy            0                       # Energy for active power-down per rank (pJ)
system.mem_ctrls1.rank0.prePowerDownEnergy            0                       # Energy for precharge power-down per rank (pJ)
system.mem_ctrls1.rank0.selfRefreshEnergy            0                       # Energy for self refresh per rank (pJ)
system.mem_ctrls1.rank0.totalEnergy      723914640495                       # Total energy per rank (pJ)
system.mem_ctrls1.rank0.averagePower       468.849301                       # Core power per rank (mW)
system.mem_ctrls1.rank0.totalIdleTime               0                       # Total Idle time Per DRAM Rank
system.mem_ctrls1.rank0.memoryStateTime::IDLE 1425821515002                       # Time in different power states
system.mem_ctrls1.rank0.memoryStateTime::REF  51558260000                       # Time in different power states
system.mem_ctrls1.rank0.memoryStateTime::SREF            0                       # Time in different power states
system.mem_ctrls1.rank0.memoryStateTime::PRE_PDN            0                       # Time in different power states
system.mem_ctrls1.rank0.memoryStateTime::ACT  66644368499                       # Time in different power states
system.mem_ctrls1.rank0.memoryStateTime::ACT_PDN            0                       # Time in different power states
system.mem_ctrls1.power_state.pwrStateResidencyTicks::UNDEFINED 102462852348001                       # Cumulative time (in ticks) in various power states
system.cpu_voltage_domain.voltage                   1                       # Voltage in Volts
system.iobus.trans_dist::ReadReq                  416                       # Transaction distribution
system.iobus.trans_dist::ReadResp                 416                       # Transaction distribution
system.iobus.trans_dist::WriteReq                6913                       # Transaction distribution
system.iobus.trans_dist::WriteResp               6913                       # Transaction distribution
system.iobus.pkt_count_system.pc.south_bridge.io_apic.int_master::system.ruby.l1_cntrl1.sequencer.pio-slave-port          218                       # Packet count per connected master and slave (bytes)
system.iobus.pkt_count_system.pc.south_bridge.io_apic.int_master::total          218                       # Packet count per connected master and slave (bytes)
system.iobus.pkt_count_system.ruby.l1_cntrl0.sequencer.mem-master-port::system.ruby.l1_cntrl0.sequencer.pio-slave-port         3352                       # Packet count per connected master and slave (bytes)
system.iobus.pkt_count_system.ruby.l1_cntrl0.sequencer.mem-master-port::system.ruby.l1_cntrl1.sequencer.pio-slave-port           66                       # Packet count per connected master and slave (bytes)
system.iobus.pkt_count_system.ruby.l1_cntrl0.sequencer.mem-master-port::system.ruby.l1_cntrl2.sequencer.pio-slave-port           60                       # Packet count per connected master and slave (bytes)
system.iobus.pkt_count_system.ruby.l1_cntrl0.sequencer.mem-master-port::system.ruby.l1_cntrl3.sequencer.pio-slave-port           64                       # Packet count per connected master and slave (bytes)
system.iobus.pkt_count_system.ruby.l1_cntrl0.sequencer.mem-master-port::total         3542                       # Packet count per connected master and slave (bytes)
system.iobus.pkt_count_system.ruby.l1_cntrl1.sequencer.mem-master-port::system.pc.south_bridge.ide.pio           48                       # Packet count per connected master and slave (bytes)
system.iobus.pkt_count_system.ruby.l1_cntrl1.sequencer.mem-master-port::system.pc.com_1.pio          850                       # Packet count per connected master and slave (bytes)
system.iobus.pkt_count_system.ruby.l1_cntrl1.sequencer.mem-master-port::system.ruby.l1_cntrl0.sequencer.pio-slave-port           14                       # Packet count per connected master and slave (bytes)
system.iobus.pkt_count_system.ruby.l1_cntrl1.sequencer.mem-master-port::system.ruby.l1_cntrl1.sequencer.pio-slave-port         3286                       # Packet count per connected master and slave (bytes)
system.iobus.pkt_count_system.ruby.l1_cntrl1.sequencer.mem-master-port::system.ruby.l1_cntrl2.sequencer.pio-slave-port           18                       # Packet count per connected master and slave (bytes)
system.iobus.pkt_count_system.ruby.l1_cntrl1.sequencer.mem-master-port::system.ruby.l1_cntrl3.sequencer.pio-slave-port           16                       # Packet count per connected master and slave (bytes)
system.iobus.pkt_count_system.ruby.l1_cntrl1.sequencer.mem-master-port::total         4232                       # Packet count per connected master and slave (bytes)
system.iobus.pkt_count_system.ruby.l1_cntrl2.sequencer.mem-master-port::system.pc.south_bridge.ide.pio           34                       # Packet count per connected master and slave (bytes)
system.iobus.pkt_count_system.ruby.l1_cntrl2.sequencer.mem-master-port::system.ruby.l1_cntrl0.sequencer.pio-slave-port           14                       # Packet count per connected master and slave (bytes)
system.iobus.pkt_count_system.ruby.l1_cntrl2.sequencer.mem-master-port::system.ruby.l1_cntrl1.sequencer.pio-slave-port           14                       # Packet count per connected master and slave (bytes)
system.iobus.pkt_count_system.ruby.l1_cntrl2.sequencer.mem-master-port::system.ruby.l1_cntrl2.sequencer.pio-slave-port         3228                       # Packet count per connected master and slave (bytes)
system.iobus.pkt_count_system.ruby.l1_cntrl2.sequencer.mem-master-port::system.ruby.l1_cntrl3.sequencer.pio-slave-port           14                       # Packet count per connected master and slave (bytes)
system.iobus.pkt_count_system.ruby.l1_cntrl2.sequencer.mem-master-port::total         3304                       # Packet count per connected master and slave (bytes)
system.iobus.pkt_count_system.ruby.l1_cntrl3.sequencer.mem-master-port::system.pc.south_bridge.ide.pio          102                       # Packet count per connected master and slave (bytes)
system.iobus.pkt_count_system.ruby.l1_cntrl3.sequencer.mem-master-port::system.ruby.l1_cntrl0.sequencer.pio-slave-port           12                       # Packet count per connected master and slave (bytes)
system.iobus.pkt_count_system.ruby.l1_cntrl3.sequencer.mem-master-port::system.ruby.l1_cntrl1.sequencer.pio-slave-port           14                       # Packet count per connected master and slave (bytes)
system.iobus.pkt_count_system.ruby.l1_cntrl3.sequencer.mem-master-port::system.ruby.l1_cntrl2.sequencer.pio-slave-port           12                       # Packet count per connected master and slave (bytes)
system.iobus.pkt_count_system.ruby.l1_cntrl3.sequencer.mem-master-port::system.ruby.l1_cntrl3.sequencer.pio-slave-port         3222                       # Packet count per connected master and slave (bytes)
system.iobus.pkt_count_system.ruby.l1_cntrl3.sequencer.mem-master-port::total         3362                       # Packet count per connected master and slave (bytes)
system.iobus.pkt_count::total                   14658                       # Packet count per connected master and slave (bytes)
system.iobus.pkt_size_system.pc.south_bridge.io_apic.int_master::system.ruby.l1_cntrl1.sequencer.pio-slave-port          436                       # Cumulative packet size per connected master and slave (bytes)
system.iobus.pkt_size_system.pc.south_bridge.io_apic.int_master::total          436                       # Cumulative packet size per connected master and slave (bytes)
system.iobus.pkt_size_system.ruby.l1_cntrl0.sequencer.mem-master-port::system.ruby.l1_cntrl0.sequencer.pio-slave-port         6704                       # Cumulative packet size per connected master and slave (bytes)
system.iobus.pkt_size_system.ruby.l1_cntrl0.sequencer.mem-master-port::system.ruby.l1_cntrl1.sequencer.pio-slave-port          132                       # Cumulative packet size per connected master and slave (bytes)
system.iobus.pkt_size_system.ruby.l1_cntrl0.sequencer.mem-master-port::system.ruby.l1_cntrl2.sequencer.pio-slave-port          120                       # Cumulative packet size per connected master and slave (bytes)
system.iobus.pkt_size_system.ruby.l1_cntrl0.sequencer.mem-master-port::system.ruby.l1_cntrl3.sequencer.pio-slave-port          128                       # Cumulative packet size per connected master and slave (bytes)
system.iobus.pkt_size_system.ruby.l1_cntrl0.sequencer.mem-master-port::total         7084                       # Cumulative packet size per connected master and slave (bytes)
system.iobus.pkt_size_system.ruby.l1_cntrl1.sequencer.mem-master-port::system.pc.south_bridge.ide.pio           24                       # Cumulative packet size per connected master and slave (bytes)
system.iobus.pkt_size_system.ruby.l1_cntrl1.sequencer.mem-master-port::system.pc.com_1.pio          425                       # Cumulative packet size per connected master and slave (bytes)
system.iobus.pkt_size_system.ruby.l1_cntrl1.sequencer.mem-master-port::system.ruby.l1_cntrl0.sequencer.pio-slave-port           28                       # Cumulative packet size per connected master and slave (bytes)
system.iobus.pkt_size_system.ruby.l1_cntrl1.sequencer.mem-master-port::system.ruby.l1_cntrl1.sequencer.pio-slave-port         6572                       # Cumulative packet size per connected master and slave (bytes)
system.iobus.pkt_size_system.ruby.l1_cntrl1.sequencer.mem-master-port::system.ruby.l1_cntrl2.sequencer.pio-slave-port           36                       # Cumulative packet size per connected master and slave (bytes)
system.iobus.pkt_size_system.ruby.l1_cntrl1.sequencer.mem-master-port::system.ruby.l1_cntrl3.sequencer.pio-slave-port           32                       # Cumulative packet size per connected master and slave (bytes)
system.iobus.pkt_size_system.ruby.l1_cntrl1.sequencer.mem-master-port::total         7117                       # Cumulative packet size per connected master and slave (bytes)
system.iobus.pkt_size_system.ruby.l1_cntrl2.sequencer.mem-master-port::system.pc.south_bridge.ide.pio           20                       # Cumulative packet size per connected master and slave (bytes)
system.iobus.pkt_size_system.ruby.l1_cntrl2.sequencer.mem-master-port::system.ruby.l1_cntrl0.sequencer.pio-slave-port           28                       # Cumulative packet size per connected master and slave (bytes)
system.iobus.pkt_size_system.ruby.l1_cntrl2.sequencer.mem-master-port::system.ruby.l1_cntrl1.sequencer.pio-slave-port           28                       # Cumulative packet size per connected master and slave (bytes)
system.iobus.pkt_size_system.ruby.l1_cntrl2.sequencer.mem-master-port::system.ruby.l1_cntrl2.sequencer.pio-slave-port         6456                       # Cumulative packet size per connected master and slave (bytes)
system.iobus.pkt_size_system.ruby.l1_cntrl2.sequencer.mem-master-port::system.ruby.l1_cntrl3.sequencer.pio-slave-port           28                       # Cumulative packet size per connected master and slave (bytes)
system.iobus.pkt_size_system.ruby.l1_cntrl2.sequencer.mem-master-port::total         6560                       # Cumulative packet size per connected master and slave (bytes)
system.iobus.pkt_size_system.ruby.l1_cntrl3.sequencer.mem-master-port::system.pc.south_bridge.ide.pio           60                       # Cumulative packet size per connected master and slave (bytes)
system.iobus.pkt_size_system.ruby.l1_cntrl3.sequencer.mem-master-port::system.ruby.l1_cntrl0.sequencer.pio-slave-port           24                       # Cumulative packet size per connected master and slave (bytes)
system.iobus.pkt_size_system.ruby.l1_cntrl3.sequencer.mem-master-port::system.ruby.l1_cntrl1.sequencer.pio-slave-port           28                       # Cumulative packet size per connected master and slave (bytes)
system.iobus.pkt_size_system.ruby.l1_cntrl3.sequencer.mem-master-port::system.ruby.l1_cntrl2.sequencer.pio-slave-port           24                       # Cumulative packet size per connected master and slave (bytes)
system.iobus.pkt_size_system.ruby.l1_cntrl3.sequencer.mem-master-port::system.ruby.l1_cntrl3.sequencer.pio-slave-port         6444                       # Cumulative packet size per connected master and slave (bytes)
system.iobus.pkt_size_system.ruby.l1_cntrl3.sequencer.mem-master-port::total         6580                       # Cumulative packet size per connected master and slave (bytes)
system.iobus.pkt_size::total                    27777                       # Cumulative packet size per connected master and slave (bytes)
system.iobus.reqLayer2.occupancy               152000                       # Layer occupancy (ticks)
system.iobus.reqLayer2.utilization                0.0                       # Layer utilization (%)
system.iobus.power_state.pwrStateResidencyTicks::UNDEFINED 102462852348001                       # Cumulative time (in ticks) in various power states
system.iobus.reqLayer19.occupancy             3929280                       # Layer occupancy (ticks)
system.iobus.reqLayer19.utilization               0.0                       # Layer utilization (%)
system.iobus.reqLayer17.occupancy             3888962                       # Layer occupancy (ticks)
system.iobus.reqLayer17.utilization               0.0                       # Layer utilization (%)
system.iobus.reqLayer12.occupancy              540000                       # Layer occupancy (ticks)
system.iobus.reqLayer12.utilization               0.0                       # Layer utilization (%)
system.iobus.reqLayer18.occupancy             4104017                       # Layer occupancy (ticks)
system.iobus.reqLayer18.utilization               0.0                       # Layer utilization (%)
system.iobus.respLayer9.occupancy             2502500                       # Layer occupancy (ticks)
system.iobus.respLayer9.utilization               0.0                       # Layer utilization (%)
system.iobus.respLayer5.occupancy             3274500                       # Layer occupancy (ticks)
system.iobus.respLayer5.utilization               0.0                       # Layer utilization (%)
system.iobus.respLayer7.occupancy             2469000                       # Layer occupancy (ticks)
system.iobus.respLayer7.utilization               0.0                       # Layer utilization (%)
system.iobus.respLayer0.occupancy              163996                       # Layer occupancy (ticks)
system.iobus.respLayer0.utilization               0.0                       # Layer utilization (%)
system.iobus.respLayer3.occupancy             2640500                       # Layer occupancy (ticks)
system.iobus.respLayer3.utilization               0.0                       # Layer utilization (%)
system.iobus.reqLayer20.occupancy             3992141                       # Layer occupancy (ticks)
system.iobus.reqLayer20.utilization               0.0                       # Layer utilization (%)

---------- End Simulation Statistics   ----------
