
---------- Begin Simulation Statistics ----------
final_tick                               101103653206001                       # Number of ticks from beginning of simulation (restored from checkpoints and never reset)
host_inst_rate                                1420296                       # Simulator instruction rate (inst/s)
host_mem_usage                                1629132                       # Number of bytes of host memory used
host_op_rate                                  1541512                       # Simulator op (including micro ops) rate (op/s)
host_seconds                                  4300.88                       # Real time elapsed on the host
host_tick_rate                              141177140                       # Simulator tick rate (ticks/s)
sim_freq                                 1000000000000                       # Frequency of simulated ticks
sim_insts                                  6108522251                       # Number of instructions simulated
sim_ops                                    6629860056                       # Number of ops (including micro ops) simulated
sim_seconds                                  0.607186                       # Number of seconds simulated
sim_ticks                                607186045001                       # Number of ticks simulated
system.cpu0.committedInsts                          0                       # Number of instructions committed
system.cpu0.dtb.rdAccesses                          0                       # TLB accesses on read requests
system.cpu0.dtb.rdMisses                            0                       # TLB misses on read requests
system.cpu0.dtb.wrAccesses                          0                       # TLB accesses on write requests
system.cpu0.dtb.wrMisses                            0                       # TLB misses on write requests
system.cpu0.itb.rdAccesses                          0                       # TLB accesses on read requests
system.cpu0.itb.rdMisses                            0                       # TLB misses on read requests
system.cpu0.itb.wrAccesses                          0                       # TLB accesses on write requests
system.cpu0.itb.wrMisses                            0                       # TLB misses on write requests
system.cpu0.kern.inst.arm                           0                       # number of arm instructions executed
system.cpu0.kern.inst.quiesce                       0                       # number of quiesce instructions executed
system.cpu0.numCoalescedMMIO                        0                       # number of coalesced memory mapped IO requests
system.cpu0.numCycles                               0                       # number of cpu cycles simulated
system.cpu0.numExitSignal                           0                       # exits due to signal delivery
system.cpu0.numHalt                                 0                       # number of VM exits due to wait for interrupt instructions
system.cpu0.numHypercalls                           0                       # number of hypercalls
system.cpu0.numIO                                   0                       # number of VM exits due to legacy IO
system.cpu0.numInterrupts                           0                       # number of interrupts delivered
system.cpu0.numMMIO                                 0                       # number of VM exits due to memory mapped IO
system.cpu0.numVMExits                              0                       # total number of KVM exits
system.cpu0.numVMHalfEntries                        0                       # number of KVM entries to finalize pending operations
system.cpu0.numWorkItemsCompleted                   0                       # number of work items this cpu completed
system.cpu0.numWorkItemsStarted                     0                       # number of work items this cpu started
system.cpu1.committedInsts                          0                       # Number of instructions committed
system.cpu1.dtb.rdAccesses                          0                       # TLB accesses on read requests
system.cpu1.dtb.rdMisses                            0                       # TLB misses on read requests
system.cpu1.dtb.wrAccesses                          0                       # TLB accesses on write requests
system.cpu1.dtb.wrMisses                            0                       # TLB misses on write requests
system.cpu1.itb.rdAccesses                          0                       # TLB accesses on read requests
system.cpu1.itb.rdMisses                            0                       # TLB misses on read requests
system.cpu1.itb.wrAccesses                          0                       # TLB accesses on write requests
system.cpu1.itb.wrMisses                            0                       # TLB misses on write requests
system.cpu1.kern.inst.arm                           0                       # number of arm instructions executed
system.cpu1.kern.inst.quiesce                       0                       # number of quiesce instructions executed
system.cpu1.numCoalescedMMIO                        0                       # number of coalesced memory mapped IO requests
system.cpu1.numCycles                               0                       # number of cpu cycles simulated
system.cpu1.numExitSignal                           0                       # exits due to signal delivery
system.cpu1.numHalt                                 0                       # number of VM exits due to wait for interrupt instructions
system.cpu1.numHypercalls                           0                       # number of hypercalls
system.cpu1.numIO                                   0                       # number of VM exits due to legacy IO
system.cpu1.numInterrupts                           0                       # number of interrupts delivered
system.cpu1.numMMIO                                 0                       # number of VM exits due to memory mapped IO
system.cpu1.numVMExits                              0                       # total number of KVM exits
system.cpu1.numVMHalfEntries                        0                       # number of KVM entries to finalize pending operations
system.cpu1.numWorkItemsCompleted                   0                       # number of work items this cpu completed
system.cpu1.numWorkItemsStarted                     0                       # number of work items this cpu started
system.cpu2.committedInsts                          0                       # Number of instructions committed
system.cpu2.dtb.rdAccesses                          0                       # TLB accesses on read requests
system.cpu2.dtb.rdMisses                            0                       # TLB misses on read requests
system.cpu2.dtb.wrAccesses                          0                       # TLB accesses on write requests
system.cpu2.dtb.wrMisses                            0                       # TLB misses on write requests
system.cpu2.itb.rdAccesses                          0                       # TLB accesses on read requests
system.cpu2.itb.rdMisses                            0                       # TLB misses on read requests
system.cpu2.itb.wrAccesses                          0                       # TLB accesses on write requests
system.cpu2.itb.wrMisses                            0                       # TLB misses on write requests
system.cpu2.kern.inst.arm                           0                       # number of arm instructions executed
system.cpu2.kern.inst.quiesce                       0                       # number of quiesce instructions executed
system.cpu2.numCoalescedMMIO                        0                       # number of coalesced memory mapped IO requests
system.cpu2.numCycles                               0                       # number of cpu cycles simulated
system.cpu2.numExitSignal                           0                       # exits due to signal delivery
system.cpu2.numHalt                                 0                       # number of VM exits due to wait for interrupt instructions
system.cpu2.numHypercalls                           0                       # number of hypercalls
system.cpu2.numIO                                   0                       # number of VM exits due to legacy IO
system.cpu2.numInterrupts                           0                       # number of interrupts delivered
system.cpu2.numMMIO                                 0                       # number of VM exits due to memory mapped IO
system.cpu2.numVMExits                              0                       # total number of KVM exits
system.cpu2.numVMHalfEntries                        0                       # number of KVM entries to finalize pending operations
system.cpu2.numWorkItemsCompleted                   0                       # number of work items this cpu completed
system.cpu2.numWorkItemsStarted                     0                       # number of work items this cpu started
system.cpu3.committedInsts                          0                       # Number of instructions committed
system.cpu3.dtb.rdAccesses                          0                       # TLB accesses on read requests
system.cpu3.dtb.rdMisses                            0                       # TLB misses on read requests
system.cpu3.dtb.wrAccesses                          0                       # TLB accesses on write requests
system.cpu3.dtb.wrMisses                            0                       # TLB misses on write requests
system.cpu3.itb.rdAccesses                          0                       # TLB accesses on read requests
system.cpu3.itb.rdMisses                            0                       # TLB misses on read requests
system.cpu3.itb.wrAccesses                          0                       # TLB accesses on write requests
system.cpu3.itb.wrMisses                            0                       # TLB misses on write requests
system.cpu3.kern.inst.arm                           0                       # number of arm instructions executed
system.cpu3.kern.inst.quiesce                       0                       # number of quiesce instructions executed
system.cpu3.numCoalescedMMIO                        0                       # number of coalesced memory mapped IO requests
system.cpu3.numCycles                               0                       # number of cpu cycles simulated
system.cpu3.numExitSignal                           0                       # exits due to signal delivery
system.cpu3.numHalt                                 0                       # number of VM exits due to wait for interrupt instructions
system.cpu3.numHypercalls                           0                       # number of hypercalls
system.cpu3.numIO                                   0                       # number of VM exits due to legacy IO
system.cpu3.numInterrupts                           0                       # number of interrupts delivered
system.cpu3.numMMIO                                 0                       # number of VM exits due to memory mapped IO
system.cpu3.numVMExits                              0                       # total number of KVM exits
system.cpu3.numVMHalfEntries                        0                       # number of KVM entries to finalize pending operations
system.cpu3.numWorkItemsCompleted                   0                       # number of work items this cpu completed
system.cpu3.numWorkItemsStarted                     0                       # number of work items this cpu started
system.pc.south_bridge.ide.disks.dma_read_bytes       303104                       # Number of bytes transfered via DMA reads (not PRD).
system.pc.south_bridge.ide.disks.dma_read_full_pages           74                       # Number of full page size DMA reads (not PRD).
system.pc.south_bridge.ide.disks.dma_read_txs           74                       # Number of DMA read transactions (not PRD).
system.pc.south_bridge.ide.disks.dma_write_bytes       131072                       # Number of bytes transfered via DMA writes.
system.pc.south_bridge.ide.disks.dma_write_full_pages           32                       # Number of full page size DMA writes.
system.pc.south_bridge.ide.disks.dma_write_txs           32                       # Number of DMA write transactions.
system.ruby.DMA_Controller.I.allocI_load |        4747    100.00%    100.00% |           0      0.00%    100.00%
system.ruby.DMA_Controller.I.allocI_load::total         4747                      
system.ruby.DMA_Controller.I.allocI_store |        2048    100.00%    100.00% |           0      0.00%    100.00%
system.ruby.DMA_Controller.I.allocI_store::total         2048                      
system.ruby.DMA_Controller.I.deallocfwdfrom_in |        5778    100.00%    100.00% |           0      0.00%    100.00%
system.ruby.DMA_Controller.I.deallocfwdfrom_in::total         5778                      
system.ruby.DMA_Controller.M.allocTBE    |        2048    100.00%    100.00% |           0      0.00%    100.00%
system.ruby.DMA_Controller.M.allocTBE::total         2048                      
system.ruby.DMA_Controller.M.externalstoreMrespfrom_in |        2048    100.00%    100.00% |           0      0.00%    100.00%
system.ruby.DMA_Controller.M.externalstoreMrespfrom_in::total         2048                      
system.ruby.DMA_Controller.M_evict.Stallmandatory_in |       30179    100.00%    100.00% |           0      0.00%    100.00%
system.ruby.DMA_Controller.M_evict.Stallmandatory_in::total        30179                      
system.ruby.DMA_Controller.S.SloadSEvent |          65    100.00%    100.00% |           0      0.00%    100.00%
system.ruby.DMA_Controller.S.SloadSEvent::total           65                      
system.ruby.DMA_Controller.S.allocTBE    |        3738    100.00%    100.00% |           0      0.00%    100.00%
system.ruby.DMA_Controller.S.allocTBE::total         3738                      
system.ruby.DMA_Controller.S.deallocTBE  |           8    100.00%    100.00% |           0      0.00%    100.00%
system.ruby.DMA_Controller.S.deallocTBE::total            8                      
system.ruby.DMA_Controller.S.externalloadSrespfrom_in |        4747    100.00%    100.00% |           0      0.00%    100.00%
system.ruby.DMA_Controller.S.externalloadSrespfrom_in::total         4747                      
system.ruby.DMA_Controller.S_evict.Stallmandatory_in |       11237    100.00%    100.00% |           0      0.00%    100.00%
system.ruby.DMA_Controller.S_evict.Stallmandatory_in::total        11237                      
system.ruby.DMA_Controller.SloadSEvent   |          65    100.00%    100.00% |           0      0.00%    100.00%
system.ruby.DMA_Controller.SloadSEvent::total           65                      
system.ruby.DMA_Controller.Stallmandatory_in |       41416    100.00%    100.00% |           0      0.00%    100.00%
system.ruby.DMA_Controller.Stallmandatory_in::total        41416                      
system.ruby.DMA_Controller.allocI_load   |        4747    100.00%    100.00% |           0      0.00%    100.00%
system.ruby.DMA_Controller.allocI_load::total         4747                      
system.ruby.DMA_Controller.allocI_store  |        2048    100.00%    100.00% |           0      0.00%    100.00%
system.ruby.DMA_Controller.allocI_store::total         2048                      
system.ruby.DMA_Controller.allocTBE      |        5786    100.00%    100.00% |           0      0.00%    100.00%
system.ruby.DMA_Controller.allocTBE::total         5786                      
system.ruby.DMA_Controller.deallocTBE    |           8    100.00%    100.00% |           0      0.00%    100.00%
system.ruby.DMA_Controller.deallocTBE::total            8                      
system.ruby.DMA_Controller.deallocfwdfrom_in |        5778    100.00%    100.00% |           0      0.00%    100.00%
system.ruby.DMA_Controller.deallocfwdfrom_in::total         5778                      
system.ruby.DMA_Controller.externalloadSrespfrom_in |        4747    100.00%    100.00% |           0      0.00%    100.00%
system.ruby.DMA_Controller.externalloadSrespfrom_in::total         4747                      
system.ruby.DMA_Controller.externalstoreMrespfrom_in |        2048    100.00%    100.00% |           0      0.00%    100.00%
system.ruby.DMA_Controller.externalstoreMrespfrom_in::total         2048                      
system.ruby.Directory_Controller.I.allocTBE |     1250273     24.90%     24.90% |     1267256     25.24%     50.15% |     1226952     24.44%     74.59% |     1275812     25.41%    100.00%
system.ruby.Directory_Controller.I.allocTBE::total      5020293                      
system.ruby.Directory_Controller.I.deallocTBE |     1249364     24.90%     24.90% |     1266330     25.24%     50.15% |     1226025     24.44%     74.59% |     1274859     25.41%    100.00%
system.ruby.Directory_Controller.I.deallocTBE::total      5016578                      
system.ruby.Directory_Controller.I_GetML1C1C1_0.Stallreqto_in |           0      0.00%      0.00% |           1     33.33%     33.33% |           2     66.67%    100.00% |           0      0.00%    100.00%
system.ruby.Directory_Controller.I_GetML1C1C1_0.Stallreqto_in::total            3                      
system.ruby.Directory_Controller.I_GetSL1C1C1_0.Stallreqto_in |        3136     24.73%     24.73% |        3189     25.15%     49.87% |        3067     24.18%     74.06% |        3290     25.94%    100.00%
system.ruby.Directory_Controller.I_GetSL1C1C1_0.Stallreqto_in::total        12682                      
system.ruby.Directory_Controller.M.allocTBE |      190998     25.37%     25.37% |      179920     23.90%     49.27% |      189191     25.13%     74.40% |      192716     25.60%    100.00%
system.ruby.Directory_Controller.M.allocTBE::total       752825                      
system.ruby.Directory_Controller.M.deallocTBE |      191136     25.37%     25.37% |      180042     23.90%     49.27% |      189336     25.13%     74.40% |      192852     25.60%    100.00%
system.ruby.Directory_Controller.M.deallocTBE::total       753366                      
system.ruby.Directory_Controller.M_GetM.Progress |        3056     28.07%     28.07% |        2600     23.88%     51.94% |        2760     25.35%     77.29% |        2473     22.71%    100.00%
system.ruby.Directory_Controller.M_GetM.Progress::total        10889                      
system.ruby.Directory_Controller.M_GetM.Stallreqto_in |           3     25.00%     25.00% |           0      0.00%     25.00% |           3     25.00%     50.00% |           6     50.00%    100.00%
system.ruby.Directory_Controller.M_GetM.Stallreqto_in::total           12                      
system.ruby.Directory_Controller.M_GetS.Progress |        4586     33.81%     33.81% |        3095     22.82%     56.62% |        2697     19.88%     76.51% |        3187     23.49%    100.00%
system.ruby.Directory_Controller.M_GetS.Progress::total        13565                      
system.ruby.Directory_Controller.M_GetS.Stallreqto_in |          21     15.67%     15.67% |          10      7.46%     23.13% |          46     34.33%     57.46% |          57     42.54%    100.00%
system.ruby.Directory_Controller.M_GetS.Stallreqto_in::total          134                      
system.ruby.Directory_Controller.M_GetS_WBL1C1C1_0.Stallreqto_in |          65     11.84%     11.84% |          43      7.83%     19.67% |          99     18.03%     37.70% |         342     62.30%    100.00%
system.ruby.Directory_Controller.M_GetS_WBL1C1C1_0.Stallreqto_in::total          549                      
system.ruby.Directory_Controller.M_PutML1C1C1_0.Stallreqto_in |           0      0.00%      0.00% |           0      0.00%      0.00% |           0      0.00%      0.00% |           1    100.00%    100.00%
system.ruby.Directory_Controller.M_PutML1C1C1_0.Stallreqto_in::total            1                      
system.ruby.Directory_Controller.Progress |        8820     30.75%     30.75% |        7461     26.01%     56.77% |        6302     21.97%     78.74% |        6098     21.26%    100.00%
system.ruby.Directory_Controller.Progress::total        28681                      
system.ruby.Directory_Controller.S.allocTBE |     3775185     24.19%     24.19% |     4084360     26.17%     50.36% |     3814371     24.44%     74.81% |     3931336     25.19%    100.00%
system.ruby.Directory_Controller.S.allocTBE::total     15605252                      
system.ruby.Directory_Controller.S.deallocTBE |     3775956     24.19%     24.19% |     4085164     26.17%     50.36% |     3815153     24.44%     74.81% |     3932153     25.19%    100.00%
system.ruby.Directory_Controller.S.deallocTBE::total     15608426                      
system.ruby.Directory_Controller.S_GetM.Progress |        1178     27.87%     27.87% |        1766     41.78%     69.65% |         845     19.99%     89.64% |         438     10.36%    100.00%
system.ruby.Directory_Controller.S_GetM.Progress::total         4227                      
system.ruby.Directory_Controller.S_GetM.Stallreqto_in |          16     14.55%     14.55% |          19     17.27%     31.82% |          19     17.27%     49.09% |          56     50.91%    100.00%
system.ruby.Directory_Controller.S_GetM.Stallreqto_in::total          110                      
system.ruby.Directory_Controller.S_GetM.allocTBE |        4433     35.64%     35.64% |        2957     23.77%     59.41% |        2334     18.76%     78.17% |        2716     21.83%    100.00%
system.ruby.Directory_Controller.S_GetM.allocTBE::total        12440                      
system.ruby.Directory_Controller.S_GetM.deallocTBE |        4433     35.64%     35.64% |        2957     23.77%     59.41% |        2334     18.76%     78.17% |        2716     21.83%    100.00%
system.ruby.Directory_Controller.S_GetM.deallocTBE::total        12440                      
system.ruby.Directory_Controller.S_GetML1C1C1_0.Stallreqto_in |           7      9.59%      9.59% |           9     12.33%     21.92% |           2      2.74%     24.66% |          55     75.34%    100.00%
system.ruby.Directory_Controller.S_GetML1C1C1_0.Stallreqto_in::total           73                      
system.ruby.Directory_Controller.S_GetML1C1C1_1.Stallreqto_in |           0      0.00%      0.00% |           2    100.00%    100.00% |           0      0.00%    100.00% |           0      0.00%    100.00%
system.ruby.Directory_Controller.S_GetML1C1C1_1.Stallreqto_in::total            2                      
system.ruby.Directory_Controller.S_GetML1C1C1_2.Stallreqto_in |           0      0.00%      0.00% |          10     71.43%     71.43% |           4     28.57%    100.00% |           0      0.00%    100.00%
system.ruby.Directory_Controller.S_GetML1C1C1_2.Stallreqto_in::total           14                      
system.ruby.Directory_Controller.S_GetSL1C1C1_0.Stallreqto_in |        2436     27.56%     27.56% |        2129     24.08%     51.64% |        2059     23.29%     74.93% |        2216     25.07%    100.00%
system.ruby.Directory_Controller.S_GetSL1C1C1_0.Stallreqto_in::total         8840                      
system.ruby.Directory_Controller.Stallreqto_in |        5684     25.35%     25.35% |        5412     24.14%     49.49% |        5301     23.64%     73.14% |        6023     26.86%    100.00%
system.ruby.Directory_Controller.Stallreqto_in::total        22420                      
system.ruby.Directory_Controller.allocTBE |     5220889     24.41%     24.41% |     5534493     25.87%     50.28% |     5232848     24.46%     74.74% |     5402580     25.26%    100.00%
system.ruby.Directory_Controller.allocTBE::total     21390810                      
system.ruby.Directory_Controller.deallocTBE |     5220889     24.41%     24.41% |     5534493     25.87%     50.28% |     5232848     24.46%     74.74% |     5402580     25.26%    100.00%
system.ruby.Directory_Controller.deallocTBE::total     21390810                      
system.ruby.IFETCH.hit_latency_hist_seqr::bucket_size            1                      
system.ruby.IFETCH.hit_latency_hist_seqr::max_bucket            9                      
system.ruby.IFETCH.hit_latency_hist_seqr::samples   1015405910                      
system.ruby.IFETCH.hit_latency_hist_seqr |  1015405910    100.00%    100.00% |           0      0.00%    100.00% |           0      0.00%    100.00% |           0      0.00%    100.00% |           0      0.00%    100.00% |           0      0.00%    100.00% |           0      0.00%    100.00% |           0      0.00%    100.00% |           0      0.00%    100.00% |           0      0.00%    100.00%
system.ruby.IFETCH.hit_latency_hist_seqr::total   1015405910                      
system.ruby.IFETCH.latency_hist_seqr::bucket_size            1                      
system.ruby.IFETCH.latency_hist_seqr::max_bucket            9                      
system.ruby.IFETCH.latency_hist_seqr::samples   1018160642                      
system.ruby.IFETCH.latency_hist_seqr     |  1018160642    100.00%    100.00% |           0      0.00%    100.00% |           0      0.00%    100.00% |           0      0.00%    100.00% |           0      0.00%    100.00% |           0      0.00%    100.00% |           0      0.00%    100.00% |           0      0.00%    100.00% |           0      0.00%    100.00% |           0      0.00%    100.00%
system.ruby.IFETCH.latency_hist_seqr::total   1018160642                      
system.ruby.IFETCH.miss_latency_hist_seqr::bucket_size            1                      
system.ruby.IFETCH.miss_latency_hist_seqr::max_bucket            9                      
system.ruby.IFETCH.miss_latency_hist_seqr::samples      2754732                      
system.ruby.IFETCH.miss_latency_hist_seqr |     2754732    100.00%    100.00% |           0      0.00%    100.00% |           0      0.00%    100.00% |           0      0.00%    100.00% |           0      0.00%    100.00% |           0      0.00%    100.00% |           0      0.00%    100.00% |           0      0.00%    100.00% |           0      0.00%    100.00% |           0      0.00%    100.00%
system.ruby.IFETCH.miss_latency_hist_seqr::total      2754732                      
system.ruby.L1Cache_Controller.I.allocI_load |     2394775     23.82%     23.82% |     2374365     23.62%     47.44% |     2368195     23.56%     70.99% |     2916305     29.01%    100.00%
system.ruby.L1Cache_Controller.I.allocI_load::total     10053640                      
system.ruby.L1Cache_Controller.I.allocI_store |       88751     16.47%     16.47% |       76890     14.27%     30.75% |       75730     14.06%     44.80% |      297386     55.20%    100.00%
system.ruby.L1Cache_Controller.I.allocI_store::total       538757                      
system.ruby.L1Cache_Controller.I.deallocfwdfrom_in |     2482538     23.45%     23.45% |     2450237     23.14%     46.59% |     2442920     23.07%     69.66% |     3212667     30.34%    100.00%
system.ruby.L1Cache_Controller.I.deallocfwdfrom_in::total     10588362                      
system.ruby.L1Cache_Controller.I_store.Progress |         911     22.74%     22.74% |        1432     35.75%     58.49% |         633     15.80%     74.29% |        1030     25.71%    100.00%
system.ruby.L1Cache_Controller.I_store.Progress::total         4006                      
system.ruby.L1Cache_Controller.I_store.Stallfwdfrom_in |          14     34.15%     34.15% |           8     19.51%     53.66% |          14     34.15%     87.80% |           5     12.20%    100.00%
system.ruby.L1Cache_Controller.I_store.Stallfwdfrom_in::total           41                      
system.ruby.L1Cache_Controller.M.MloadMEvent |     8526636     23.19%     23.19% |     8335654     22.68%     45.87% |     8579010     23.34%     69.21% |    11319890     30.79%    100.00%
system.ruby.L1Cache_Controller.M.MloadMEvent::total     36761190                      
system.ruby.L1Cache_Controller.M.MstoreMEvent |    10596399     21.42%     21.42% |    10525693     21.28%     42.70% |    10531320     21.29%     63.99% |    17808915     36.01%    100.00%
system.ruby.L1Cache_Controller.M.MstoreMEvent::total     49462327                      
system.ruby.L1Cache_Controller.M.allocTBE |      132215     17.61%     17.61% |      116149     15.47%     33.08% |      109521     14.59%     47.67% |      392886     52.33%    100.00%
system.ruby.L1Cache_Controller.M.allocTBE::total       750771                      
system.ruby.L1Cache_Controller.M.externalstoreMrespfrom_in |      132344     17.62%     17.62% |      116310     15.48%     33.10% |      109641     14.59%     47.69% |      393017     52.31%    100.00%
system.ruby.L1Cache_Controller.M.externalstoreMrespfrom_in::total       751312                      
system.ruby.L1Cache_Controller.M_evict.Stallmandatory_in |         189     22.88%     22.88% |         158     19.13%     42.01% |         177     21.43%     63.44% |         302     36.56%    100.00%
system.ruby.L1Cache_Controller.M_evict.Stallmandatory_in::total          826                      
system.ruby.L1Cache_Controller.M_evict_x_I.Progress |           1     50.00%     50.00% |           0      0.00%     50.00% |           1     50.00%    100.00% |           0      0.00%    100.00%
system.ruby.L1Cache_Controller.M_evict_x_I.Progress::total            2                      
system.ruby.L1Cache_Controller.M_evict_x_I.Stallmandatory_in |           4     66.67%     66.67% |           0      0.00%     66.67% |           2     33.33%    100.00% |           0      0.00%    100.00%
system.ruby.L1Cache_Controller.M_evict_x_I.Stallmandatory_in::total            6                      
system.ruby.L1Cache_Controller.MloadMEvent |     8526636     23.19%     23.19% |     8335654     22.68%     45.87% |     8579010     23.34%     69.21% |    11319890     30.79%    100.00%
system.ruby.L1Cache_Controller.MloadMEvent::total     36761190                      
system.ruby.L1Cache_Controller.MstoreMEvent |    10596399     21.42%     21.42% |    10525693     21.28%     42.70% |    10531320     21.29%     63.99% |    17808915     36.01%    100.00%
system.ruby.L1Cache_Controller.MstoreMEvent::total     49462327                      
system.ruby.L1Cache_Controller.Progress  |       50558     22.05%     22.05% |       42539     18.55%     40.61% |       37505     16.36%     56.97% |       98659     43.03%    100.00%
system.ruby.L1Cache_Controller.Progress::total       229261                      
system.ruby.L1Cache_Controller.S.SloadSEvent |   244380996     22.03%     22.03% |   244835100     22.07%     44.10% |   244538065     22.04%     66.14% |   375618539     33.86%    100.00%
system.ruby.L1Cache_Controller.S.SloadSEvent::total   1109372700                      
system.ruby.L1Cache_Controller.S.allocTBE |     2397573     23.82%     23.82% |     2376395     23.61%     47.44% |     2371079     23.56%     71.00% |     2918656     29.00%    100.00%
system.ruby.L1Cache_Controller.S.allocTBE::total     10063703                      
system.ruby.L1Cache_Controller.S.deallocTBE |        3657     26.97%     26.97% |        2887     21.30%     48.27% |        3769     27.80%     76.07% |        3244     23.93%    100.00%
system.ruby.L1Cache_Controller.S.deallocTBE::total        13557                      
system.ruby.L1Cache_Controller.S.externalloadSrespfrom_in |     2394775     23.82%     23.82% |     2374365     23.62%     47.44% |     2368195     23.56%     70.99% |     2916305     29.01%    100.00%
system.ruby.L1Cache_Controller.S.externalloadSrespfrom_in::total     10053640                      
system.ruby.L1Cache_Controller.S_evict.Stallmandatory_in |         820     24.10%     24.10% |         685     20.13%     44.23% |        1027     30.18%     74.40% |         871     25.60%    100.00%
system.ruby.L1Cache_Controller.S_evict.Stallmandatory_in::total         3403                      
system.ruby.L1Cache_Controller.S_evict_x_I.Progress |           2     50.00%     50.00% |           0      0.00%     50.00% |           0      0.00%     50.00% |           2     50.00%    100.00%
system.ruby.L1Cache_Controller.S_evict_x_I.Progress::total            4                      
system.ruby.L1Cache_Controller.S_evict_x_I.Stallmandatory_in |           6     50.00%     50.00% |           0      0.00%     50.00% |           0      0.00%     50.00% |           6     50.00%    100.00%
system.ruby.L1Cache_Controller.S_evict_x_I.Stallmandatory_in::total           12                      
system.ruby.L1Cache_Controller.S_store.Progress |       49644     22.04%     22.04% |       41107     18.25%     40.29% |       36871     16.37%     56.66% |       97627     43.34%    100.00%
system.ruby.L1Cache_Controller.S_store.Progress::total       225249                      
system.ruby.L1Cache_Controller.S_store.Stallfwdfrom_in |           2     16.67%     16.67% |           4     33.33%     50.00% |           5     41.67%     91.67% |           1      8.33%    100.00%
system.ruby.L1Cache_Controller.S_store.Stallfwdfrom_in::total           12                      
system.ruby.L1Cache_Controller.SloadSEvent |   244380996     22.03%     22.03% |   244835100     22.07%     44.10% |   244538065     22.04%     66.14% |   375618539     33.86%    100.00%
system.ruby.L1Cache_Controller.SloadSEvent::total   1109372700                      
system.ruby.L1Cache_Controller.Stallfwdfrom_in |          16     30.19%     30.19% |          12     22.64%     52.83% |          19     35.85%     88.68% |           6     11.32%    100.00%
system.ruby.L1Cache_Controller.Stallfwdfrom_in::total           53                      
system.ruby.L1Cache_Controller.Stallmandatory_in |        1019     23.99%     23.99% |         843     19.85%     43.84% |        1206     28.40%     72.24% |        1179     27.76%    100.00%
system.ruby.L1Cache_Controller.Stallmandatory_in::total         4247                      
system.ruby.L1Cache_Controller.allocI_load |     2394775     23.82%     23.82% |     2374365     23.62%     47.44% |     2368195     23.56%     70.99% |     2916305     29.01%    100.00%
system.ruby.L1Cache_Controller.allocI_load::total     10053640                      
system.ruby.L1Cache_Controller.allocI_store |       88751     16.47%     16.47% |       76890     14.27%     30.75% |       75730     14.06%     44.80% |      297386     55.20%    100.00%
system.ruby.L1Cache_Controller.allocI_store::total       538757                      
system.ruby.L1Cache_Controller.allocTBE  |     2529788     23.39%     23.39% |     2492544     23.05%     46.44% |     2480600     22.94%     69.38% |     3311542     30.62%    100.00%
system.ruby.L1Cache_Controller.allocTBE::total     10814474                      
system.ruby.L1Cache_Controller.deallocTBE |        3657     26.97%     26.97% |        2887     21.30%     48.27% |        3769     27.80%     76.07% |        3244     23.93%    100.00%
system.ruby.L1Cache_Controller.deallocTBE::total        13557                      
system.ruby.L1Cache_Controller.deallocfwdfrom_in |     2482538     23.45%     23.45% |     2450237     23.14%     46.59% |     2442920     23.07%     69.66% |     3212667     30.34%    100.00%
system.ruby.L1Cache_Controller.deallocfwdfrom_in::total     10588362                      
system.ruby.L1Cache_Controller.externalloadSrespfrom_in |     2394775     23.82%     23.82% |     2374365     23.62%     47.44% |     2368195     23.56%     70.99% |     2916305     29.01%    100.00%
system.ruby.L1Cache_Controller.externalloadSrespfrom_in::total     10053640                      
system.ruby.L1Cache_Controller.externalstoreMrespfrom_in |      132344     17.62%     17.62% |      116310     15.48%     33.10% |      109641     14.59%     47.69% |      393017     52.31%    100.00%
system.ruby.L1Cache_Controller.externalstoreMrespfrom_in::total       751312                      
system.ruby.LD.hit_latency_hist_seqr::bucket_size            1                      
system.ruby.LD.hit_latency_hist_seqr::max_bucket            9                      
system.ruby.LD.hit_latency_hist_seqr::samples    130727980                      
system.ruby.LD.hit_latency_hist_seqr     |   130727980    100.00%    100.00% |           0      0.00%    100.00% |           0      0.00%    100.00% |           0      0.00%    100.00% |           0      0.00%    100.00% |           0      0.00%    100.00% |           0      0.00%    100.00% |           0      0.00%    100.00% |           0      0.00%    100.00% |           0      0.00%    100.00%
system.ruby.LD.hit_latency_hist_seqr::total    130727980                      
system.ruby.LD.latency_hist_seqr::bucket_size            1                      
system.ruby.LD.latency_hist_seqr::max_bucket            9                      
system.ruby.LD.latency_hist_seqr::samples    138026888                      
system.ruby.LD.latency_hist_seqr         |   138026888    100.00%    100.00% |           0      0.00%    100.00% |           0      0.00%    100.00% |           0      0.00%    100.00% |           0      0.00%    100.00% |           0      0.00%    100.00% |           0      0.00%    100.00% |           0      0.00%    100.00% |           0      0.00%    100.00% |           0      0.00%    100.00%
system.ruby.LD.latency_hist_seqr::total     138026888                      
system.ruby.LD.miss_latency_hist_seqr::bucket_size            1                      
system.ruby.LD.miss_latency_hist_seqr::max_bucket            9                      
system.ruby.LD.miss_latency_hist_seqr::samples      7298908                      
system.ruby.LD.miss_latency_hist_seqr    |     7298908    100.00%    100.00% |           0      0.00%    100.00% |           0      0.00%    100.00% |           0      0.00%    100.00% |           0      0.00%    100.00% |           0      0.00%    100.00% |           0      0.00%    100.00% |           0      0.00%    100.00% |           0      0.00%    100.00% |           0      0.00%    100.00%
system.ruby.LD.miss_latency_hist_seqr::total      7298908                      
system.ruby.Locked_RMW_Read.hit_latency_hist_seqr::bucket_size            1                      
system.ruby.Locked_RMW_Read.hit_latency_hist_seqr::max_bucket            9                      
system.ruby.Locked_RMW_Read.hit_latency_hist_seqr::samples        58892                      
system.ruby.Locked_RMW_Read.hit_latency_hist_seqr |       58892    100.00%    100.00% |           0      0.00%    100.00% |           0      0.00%    100.00% |           0      0.00%    100.00% |           0      0.00%    100.00% |           0      0.00%    100.00% |           0      0.00%    100.00% |           0      0.00%    100.00% |           0      0.00%    100.00% |           0      0.00%    100.00%
system.ruby.Locked_RMW_Read.hit_latency_hist_seqr::total        58892                      
system.ruby.Locked_RMW_Read.latency_hist_seqr::bucket_size            1                      
system.ruby.Locked_RMW_Read.latency_hist_seqr::max_bucket            9                      
system.ruby.Locked_RMW_Read.latency_hist_seqr::samples        77511                      
system.ruby.Locked_RMW_Read.latency_hist_seqr |       77511    100.00%    100.00% |           0      0.00%    100.00% |           0      0.00%    100.00% |           0      0.00%    100.00% |           0      0.00%    100.00% |           0      0.00%    100.00% |           0      0.00%    100.00% |           0      0.00%    100.00% |           0      0.00%    100.00% |           0      0.00%    100.00%
system.ruby.Locked_RMW_Read.latency_hist_seqr::total        77511                      
system.ruby.Locked_RMW_Read.miss_latency_hist_seqr::bucket_size            1                      
system.ruby.Locked_RMW_Read.miss_latency_hist_seqr::max_bucket            9                      
system.ruby.Locked_RMW_Read.miss_latency_hist_seqr::samples        18619                      
system.ruby.Locked_RMW_Read.miss_latency_hist_seqr |       18619    100.00%    100.00% |           0      0.00%    100.00% |           0      0.00%    100.00% |           0      0.00%    100.00% |           0      0.00%    100.00% |           0      0.00%    100.00% |           0      0.00%    100.00% |           0      0.00%    100.00% |           0      0.00%    100.00% |           0      0.00%    100.00%
system.ruby.Locked_RMW_Read.miss_latency_hist_seqr::total        18619                      
system.ruby.Locked_RMW_Write.hit_latency_hist_seqr::bucket_size            1                      
system.ruby.Locked_RMW_Write.hit_latency_hist_seqr::max_bucket            9                      
system.ruby.Locked_RMW_Write.hit_latency_hist_seqr::samples        77511                      
system.ruby.Locked_RMW_Write.hit_latency_hist_seqr |       77511    100.00%    100.00% |           0      0.00%    100.00% |           0      0.00%    100.00% |           0      0.00%    100.00% |           0      0.00%    100.00% |           0      0.00%    100.00% |           0      0.00%    100.00% |           0      0.00%    100.00% |           0      0.00%    100.00% |           0      0.00%    100.00%
system.ruby.Locked_RMW_Write.hit_latency_hist_seqr::total        77511                      
system.ruby.Locked_RMW_Write.latency_hist_seqr::bucket_size            1                      
system.ruby.Locked_RMW_Write.latency_hist_seqr::max_bucket            9                      
system.ruby.Locked_RMW_Write.latency_hist_seqr::samples        77511                      
system.ruby.Locked_RMW_Write.latency_hist_seqr |       77511    100.00%    100.00% |           0      0.00%    100.00% |           0      0.00%    100.00% |           0      0.00%    100.00% |           0      0.00%    100.00% |           0      0.00%    100.00% |           0      0.00%    100.00% |           0      0.00%    100.00% |           0      0.00%    100.00% |           0      0.00%    100.00%
system.ruby.Locked_RMW_Write.latency_hist_seqr::total        77511                      
system.ruby.RMW_Read.hit_latency_hist_seqr::bucket_size            1                      
system.ruby.RMW_Read.hit_latency_hist_seqr::max_bucket            9                      
system.ruby.RMW_Read.hit_latency_hist_seqr::samples     11012195                      
system.ruby.RMW_Read.hit_latency_hist_seqr |    11012195    100.00%    100.00% |           0      0.00%    100.00% |           0      0.00%    100.00% |           0      0.00%    100.00% |           0      0.00%    100.00% |           0      0.00%    100.00% |           0      0.00%    100.00% |           0      0.00%    100.00% |           0      0.00%    100.00% |           0      0.00%    100.00%
system.ruby.RMW_Read.hit_latency_hist_seqr::total     11012195                      
system.ruby.RMW_Read.latency_hist_seqr::bucket_size            1                      
system.ruby.RMW_Read.latency_hist_seqr::max_bucket            9                      
system.ruby.RMW_Read.latency_hist_seqr::samples     11045152                      
system.ruby.RMW_Read.latency_hist_seqr   |    11045152    100.00%    100.00% |           0      0.00%    100.00% |           0      0.00%    100.00% |           0      0.00%    100.00% |           0      0.00%    100.00% |           0      0.00%    100.00% |           0      0.00%    100.00% |           0      0.00%    100.00% |           0      0.00%    100.00% |           0      0.00%    100.00%
system.ruby.RMW_Read.latency_hist_seqr::total     11045152                      
system.ruby.RMW_Read.miss_latency_hist_seqr::bucket_size            1                      
system.ruby.RMW_Read.miss_latency_hist_seqr::max_bucket            9                      
system.ruby.RMW_Read.miss_latency_hist_seqr::samples        32957                      
system.ruby.RMW_Read.miss_latency_hist_seqr |       32957    100.00%    100.00% |           0      0.00%    100.00% |           0      0.00%    100.00% |           0      0.00%    100.00% |           0      0.00%    100.00% |           0      0.00%    100.00% |           0      0.00%    100.00% |           0      0.00%    100.00% |           0      0.00%    100.00% |           0      0.00%    100.00%
system.ruby.RMW_Read.miss_latency_hist_seqr::total        32957                      
system.ruby.ST.hit_latency_hist_seqr::bucket_size            1                      
system.ruby.ST.hit_latency_hist_seqr::max_bucket            9                      
system.ruby.ST.hit_latency_hist_seqr::samples     38313729                      
system.ruby.ST.hit_latency_hist_seqr     |    38313729    100.00%    100.00% |           0      0.00%    100.00% |           0      0.00%    100.00% |           0      0.00%    100.00% |           0      0.00%    100.00% |           0      0.00%    100.00% |           0      0.00%    100.00% |           0      0.00%    100.00% |           0      0.00%    100.00% |           0      0.00%    100.00%
system.ruby.ST.hit_latency_hist_seqr::total     38313729                      
system.ruby.ST.latency_hist_seqr::bucket_size            1                      
system.ruby.ST.latency_hist_seqr::max_bucket            9                      
system.ruby.ST.latency_hist_seqr::samples     39013465                      
system.ruby.ST.latency_hist_seqr         |    39013465    100.00%    100.00% |           0      0.00%    100.00% |           0      0.00%    100.00% |           0      0.00%    100.00% |           0      0.00%    100.00% |           0      0.00%    100.00% |           0      0.00%    100.00% |           0      0.00%    100.00% |           0      0.00%    100.00% |           0      0.00%    100.00%
system.ruby.ST.latency_hist_seqr::total      39013465                      
system.ruby.ST.miss_latency_hist_seqr::bucket_size            1                      
system.ruby.ST.miss_latency_hist_seqr::max_bucket            9                      
system.ruby.ST.miss_latency_hist_seqr::samples       699736                      
system.ruby.ST.miss_latency_hist_seqr    |      699736    100.00%    100.00% |           0      0.00%    100.00% |           0      0.00%    100.00% |           0      0.00%    100.00% |           0      0.00%    100.00% |           0      0.00%    100.00% |           0      0.00%    100.00% |           0      0.00%    100.00% |           0      0.00%    100.00% |           0      0.00%    100.00%
system.ruby.ST.miss_latency_hist_seqr::total       699736                      
system.ruby.dir_cntrl0.fwdFrom.avg_buf_msgs     0.012799                       # Average number of messages in buffer
system.ruby.dir_cntrl0.fwdFrom.avg_stall_time  2999.946986                       # Average number of cycles messages are stalled in this MB
system.ruby.dir_cntrl0.reqTo.avg_buf_msgs     0.004342                       # Average number of messages in buffer
system.ruby.dir_cntrl0.reqTo.avg_stall_time  4818.249437                       # Average number of cycles messages are stalled in this MB
system.ruby.dir_cntrl0.requestToMemory.avg_buf_msgs     0.002321                       # Average number of messages in buffer
system.ruby.dir_cntrl0.requestToMemory.avg_stall_time   499.999995                       # Average number of cycles messages are stalled in this MB
system.ruby.dir_cntrl0.respFrom.avg_buf_msgs     0.013038                       # Average number of messages in buffer
system.ruby.dir_cntrl0.respFrom.avg_stall_time  3002.200950                       # Average number of cycles messages are stalled in this MB
system.ruby.dir_cntrl0.respTo.avg_buf_msgs     0.000011                       # Average number of messages in buffer
system.ruby.dir_cntrl0.respTo.avg_stall_time  8568.164696                       # Average number of cycles messages are stalled in this MB
system.ruby.dir_cntrl0.responseFromMemory.avg_buf_msgs     0.002326                       # Average number of messages in buffer
system.ruby.dir_cntrl0.responseFromMemory.avg_stall_time   499.999926                       # Average number of cycles messages are stalled in this MB
system.ruby.dir_cntrl1.fwdFrom.avg_buf_msgs     0.013560                       # Average number of messages in buffer
system.ruby.dir_cntrl1.fwdFrom.avg_stall_time  2999.915195                       # Average number of cycles messages are stalled in this MB
system.ruby.dir_cntrl1.reqTo.avg_buf_msgs     0.004600                       # Average number of messages in buffer
system.ruby.dir_cntrl1.reqTo.avg_stall_time  4483.348165                       # Average number of cycles messages are stalled in this MB
system.ruby.dir_cntrl1.requestToMemory.avg_buf_msgs     0.002444                       # Average number of messages in buffer
system.ruby.dir_cntrl1.requestToMemory.avg_stall_time   499.999910                       # Average number of cycles messages are stalled in this MB
system.ruby.dir_cntrl1.respFrom.avg_buf_msgs     0.013829                       # Average number of messages in buffer
system.ruby.dir_cntrl1.respFrom.avg_stall_time  3002.330050                       # Average number of cycles messages are stalled in this MB
system.ruby.dir_cntrl1.respTo.avg_buf_msgs     0.000009                       # Average number of messages in buffer
system.ruby.dir_cntrl1.respTo.avg_stall_time  9130.259186                       # Average number of cycles messages are stalled in this MB
system.ruby.dir_cntrl1.responseFromMemory.avg_buf_msgs     0.002449                       # Average number of messages in buffer
system.ruby.dir_cntrl1.responseFromMemory.avg_stall_time   499.999841                       # Average number of cycles messages are stalled in this MB
system.ruby.dir_cntrl2.fwdFrom.avg_buf_msgs     0.012806                       # Average number of messages in buffer
system.ruby.dir_cntrl2.fwdFrom.avg_stall_time  2999.868526                       # Average number of cycles messages are stalled in this MB
system.ruby.dir_cntrl2.reqTo.avg_buf_msgs     0.004351                       # Average number of messages in buffer
system.ruby.dir_cntrl2.reqTo.avg_stall_time  4515.493658                       # Average number of cycles messages are stalled in this MB
system.ruby.dir_cntrl2.requestToMemory.avg_buf_msgs     0.002328                       # Average number of messages in buffer
system.ruby.dir_cntrl2.requestToMemory.avg_stall_time   499.999735                       # Average number of cycles messages are stalled in this MB
system.ruby.dir_cntrl2.respFrom.avg_buf_msgs     0.013161                       # Average number of messages in buffer
system.ruby.dir_cntrl2.respFrom.avg_stall_time  3004.009637                       # Average number of cycles messages are stalled in this MB
system.ruby.dir_cntrl2.respTo.avg_buf_msgs     0.000007                       # Average number of messages in buffer
system.ruby.dir_cntrl2.respTo.avg_stall_time  8754.194672                       # Average number of cycles messages are stalled in this MB
system.ruby.dir_cntrl2.responseFromMemory.avg_buf_msgs     0.002333                       # Average number of messages in buffer
system.ruby.dir_cntrl2.responseFromMemory.avg_stall_time   499.999666                       # Average number of cycles messages are stalled in this MB
system.ruby.dir_cntrl3.fwdFrom.avg_buf_msgs     0.013225                       # Average number of messages in buffer
system.ruby.dir_cntrl3.fwdFrom.avg_stall_time  2999.936250                       # Average number of cycles messages are stalled in this MB
system.ruby.dir_cntrl3.reqTo.avg_buf_msgs     0.004496                       # Average number of messages in buffer
system.ruby.dir_cntrl3.reqTo.avg_stall_time  4215.908912                       # Average number of cycles messages are stalled in this MB
system.ruby.dir_cntrl3.requestToMemory.avg_buf_msgs     0.002401                       # Average number of messages in buffer
system.ruby.dir_cntrl3.requestToMemory.avg_stall_time   499.999996                       # Average number of cycles messages are stalled in this MB
system.ruby.dir_cntrl3.respFrom.avg_buf_msgs     0.013593                       # Average number of messages in buffer
system.ruby.dir_cntrl3.respFrom.avg_stall_time  3004.309402                       # Average number of cycles messages are stalled in this MB
system.ruby.dir_cntrl3.respTo.avg_buf_msgs     0.000007                       # Average number of messages in buffer
system.ruby.dir_cntrl3.respTo.avg_stall_time  8687.069742                       # Average number of cycles messages are stalled in this MB
system.ruby.dir_cntrl3.responseFromMemory.avg_buf_msgs     0.002407                       # Average number of messages in buffer
system.ruby.dir_cntrl3.responseFromMemory.avg_stall_time   499.999927                       # Average number of cycles messages are stalled in this MB
system.ruby.dma_cntrl0.cache.demand_accesses            0                       # Number of cache demand accesses
system.ruby.dma_cntrl0.cache.demand_hits            0                       # Number of cache demand hits
system.ruby.dma_cntrl0.cache.demand_misses            0                       # Number of cache demand misses
system.ruby.dma_cntrl0.fully_busy_cycles         9131                       # cycles for which number of transistions == max transitions
system.ruby.dma_cntrl0.fwdFrom.avg_buf_msgs     0.000005                       # Average number of messages in buffer
system.ruby.dma_cntrl0.fwdFrom.avg_stall_time  6198.119163                       # Average number of cycles messages are stalled in this MB
system.ruby.dma_cntrl0.mandatoryQueue.avg_buf_msgs     0.000418                       # Average number of messages in buffer
system.ruby.dma_cntrl0.mandatoryQueue.avg_stall_time 103599.168857                       # Average number of cycles messages are stalled in this MB
system.ruby.dma_cntrl0.reqTo.avg_buf_msgs     0.000537                       # Average number of messages in buffer
system.ruby.dma_cntrl0.reqTo.avg_stall_time  5927.180218                       # Average number of cycles messages are stalled in this MB
system.ruby.dma_cntrl0.respFrom.avg_buf_msgs     0.000006                       # Average number of messages in buffer
system.ruby.dma_cntrl0.respFrom.avg_stall_time 102221.575735                       # Average number of cycles messages are stalled in this MB
system.ruby.dma_cntrl0.respTo.avg_buf_msgs     0.000000                       # Average number of messages in buffer
system.ruby.dma_cntrl0.respTo.avg_stall_time   862.803046                       # Average number of cycles messages are stalled in this MB
system.ruby.hit_latency_hist_seqr::bucket_size            1                      
system.ruby.hit_latency_hist_seqr::max_bucket            9                      
system.ruby.hit_latency_hist_seqr::samples   1195596217                      
system.ruby.hit_latency_hist_seqr        |  1195596217    100.00%    100.00% |           0      0.00%    100.00% |           0      0.00%    100.00% |           0      0.00%    100.00% |           0      0.00%    100.00% |           0      0.00%    100.00% |           0      0.00%    100.00% |           0      0.00%    100.00% |           0      0.00%    100.00% |           0      0.00%    100.00%
system.ruby.hit_latency_hist_seqr::total   1195596217                      
system.ruby.io_controller.cache.demand_accesses            0                       # Number of cache demand accesses
system.ruby.io_controller.cache.demand_hits            0                       # Number of cache demand hits
system.ruby.io_controller.cache.demand_misses            0                       # Number of cache demand misses
system.ruby.l1_cntrl0.cache.demand_accesses            0                       # Number of cache demand accesses
system.ruby.l1_cntrl0.cache.demand_hits             0                       # Number of cache demand hits
system.ruby.l1_cntrl0.cache.demand_misses            0                       # Number of cache demand misses
system.ruby.l1_cntrl0.fully_busy_cycles             2                       # cycles for which number of transistions == max transitions
system.ruby.l1_cntrl0.fwdFrom.avg_buf_msgs     0.480855                       # Average number of messages in buffer
system.ruby.l1_cntrl0.fwdFrom.avg_stall_time  6313.966742                       # Average number of cycles messages are stalled in this MB
system.ruby.l1_cntrl0.mandatoryQueue.avg_buf_msgs     0.264864                       # Average number of messages in buffer
system.ruby.l1_cntrl0.mandatoryQueue.avg_stall_time  2488.295914                       # Average number of cycles messages are stalled in this MB
system.ruby.l1_cntrl0.reqTo.avg_buf_msgs     0.004120                       # Average number of messages in buffer
system.ruby.l1_cntrl0.reqTo.avg_stall_time   499.786741                       # Average number of cycles messages are stalled in this MB
system.ruby.l1_cntrl0.respFrom.avg_buf_msgs     0.002087                       # Average number of messages in buffer
system.ruby.l1_cntrl0.respFrom.avg_stall_time 16501.318407                       # Average number of cycles messages are stalled in this MB
system.ruby.l1_cntrl0.respTo.avg_buf_msgs     0.000027                       # Average number of messages in buffer
system.ruby.l1_cntrl0.respTo.avg_stall_time   999.728470                       # Average number of cycles messages are stalled in this MB
system.ruby.l1_cntrl1.cache.demand_accesses            0                       # Number of cache demand accesses
system.ruby.l1_cntrl1.cache.demand_hits             0                       # Number of cache demand hits
system.ruby.l1_cntrl1.cache.demand_misses            0                       # Number of cache demand misses
system.ruby.l1_cntrl1.fully_busy_cycles             1                       # cycles for which number of transistions == max transitions
system.ruby.l1_cntrl1.fwdFrom.avg_buf_msgs     1.425786                       # Average number of messages in buffer
system.ruby.l1_cntrl1.fwdFrom.avg_stall_time  6669.149619                       # Average number of cycles messages are stalled in this MB
system.ruby.l1_cntrl1.mandatoryQueue.avg_buf_msgs     0.263980                       # Average number of messages in buffer
system.ruby.l1_cntrl1.mandatoryQueue.avg_stall_time  2433.841950                       # Average number of cycles messages are stalled in this MB
system.ruby.l1_cntrl1.reqTo.avg_buf_msgs     0.004064                       # Average number of messages in buffer
system.ruby.l1_cntrl1.reqTo.avg_stall_time   499.999999                       # Average number of cycles messages are stalled in this MB
system.ruby.l1_cntrl1.respFrom.avg_buf_msgs     0.002054                       # Average number of messages in buffer
system.ruby.l1_cntrl1.respFrom.avg_stall_time 16833.306329                       # Average number of cycles messages are stalled in this MB
system.ruby.l1_cntrl1.respTo.avg_buf_msgs     0.000023                       # Average number of messages in buffer
system.ruby.l1_cntrl1.respTo.avg_stall_time   999.853010                       # Average number of cycles messages are stalled in this MB
system.ruby.l1_cntrl2.cache.demand_accesses            0                       # Number of cache demand accesses
system.ruby.l1_cntrl2.cache.demand_hits             0                       # Number of cache demand hits
system.ruby.l1_cntrl2.cache.demand_misses            0                       # Number of cache demand misses
system.ruby.l1_cntrl2.fully_busy_cycles             4                       # cycles for which number of transistions == max transitions
system.ruby.l1_cntrl2.fwdFrom.avg_buf_msgs     1.701583                       # Average number of messages in buffer
system.ruby.l1_cntrl2.fwdFrom.avg_stall_time  6534.273713                       # Average number of cycles messages are stalled in this MB
system.ruby.l1_cntrl2.mandatoryQueue.avg_buf_msgs     0.263925                       # Average number of messages in buffer
system.ruby.l1_cntrl2.mandatoryQueue.avg_stall_time  2436.188468                       # Average number of cycles messages are stalled in this MB
system.ruby.l1_cntrl2.reqTo.avg_buf_msgs     0.004046                       # Average number of messages in buffer
system.ruby.l1_cntrl2.reqTo.avg_stall_time   499.946745                       # Average number of cycles messages are stalled in this MB
system.ruby.l1_cntrl2.respFrom.avg_buf_msgs     0.002043                       # Average number of messages in buffer
system.ruby.l1_cntrl2.respFrom.avg_stall_time 16173.367644                       # Average number of cycles messages are stalled in this MB
system.ruby.l1_cntrl2.respTo.avg_buf_msgs     0.000029                       # Average number of messages in buffer
system.ruby.l1_cntrl2.respTo.avg_stall_time   999.709631                       # Average number of cycles messages are stalled in this MB
system.ruby.l1_cntrl3.cache.demand_accesses            0                       # Number of cache demand accesses
system.ruby.l1_cntrl3.cache.demand_hits             0                       # Number of cache demand hits
system.ruby.l1_cntrl3.cache.demand_misses            0                       # Number of cache demand misses
system.ruby.l1_cntrl3.fully_busy_cycles             3                       # cycles for which number of transistions == max transitions
system.ruby.l1_cntrl3.fwdFrom.avg_buf_msgs     1.638294                       # Average number of messages in buffer
system.ruby.l1_cntrl3.fwdFrom.avg_stall_time  6506.264377                       # Average number of cycles messages are stalled in this MB
system.ruby.l1_cntrl3.mandatoryQueue.avg_buf_msgs     0.398823                       # Average number of messages in buffer
system.ruby.l1_cntrl3.mandatoryQueue.avg_stall_time  3313.329537                       # Average number of cycles messages are stalled in this MB
system.ruby.l1_cntrl3.reqTo.avg_buf_msgs     0.005366                       # Average number of messages in buffer
system.ruby.l1_cntrl3.reqTo.avg_stall_time   500.005753                       # Average number of cycles messages are stalled in this MB
system.ruby.l1_cntrl3.respFrom.avg_buf_msgs     0.002728                       # Average number of messages in buffer
system.ruby.l1_cntrl3.respFrom.avg_stall_time 16528.819949                       # Average number of cycles messages are stalled in this MB
system.ruby.l1_cntrl3.respTo.avg_buf_msgs     0.000025                       # Average number of messages in buffer
system.ruby.l1_cntrl3.respTo.avg_stall_time   999.909797                       # Average number of cycles messages are stalled in this MB
system.ruby.latency_hist_seqr::bucket_size            1                      
system.ruby.latency_hist_seqr::max_bucket            9                      
system.ruby.latency_hist_seqr::samples     1206401169                      
system.ruby.latency_hist_seqr            |  1206401169    100.00%    100.00% |           0      0.00%    100.00% |           0      0.00%    100.00% |           0      0.00%    100.00% |           0      0.00%    100.00% |           0      0.00%    100.00% |           0      0.00%    100.00% |           0      0.00%    100.00% |           0      0.00%    100.00% |           0      0.00%    100.00%
system.ruby.latency_hist_seqr::total       1206401169                      
system.ruby.miss_latency_hist_seqr::bucket_size            1                      
system.ruby.miss_latency_hist_seqr::max_bucket            9                      
system.ruby.miss_latency_hist_seqr::samples     10804952                      
system.ruby.miss_latency_hist_seqr       |    10804952    100.00%    100.00% |           0      0.00%    100.00% |           0      0.00%    100.00% |           0      0.00%    100.00% |           0      0.00%    100.00% |           0      0.00%    100.00% |           0      0.00%    100.00% |           0      0.00%    100.00% |           0      0.00%    100.00% |           0      0.00%    100.00%
system.ruby.miss_latency_hist_seqr::total     10804952                      
system.ruby.network.average_flit_latency    16.183791                      
system.ruby.network.average_flit_network_latency    11.518269                      
system.ruby.network.average_flit_queueing_latency     4.665522                      
system.ruby.network.average_flit_vnet_latency |   15.042107                       |    5.005262                       |    6.504209                      
system.ruby.network.average_flit_vqueue_latency |    6.016540                       |    6.000001                       |    1.070013                      
system.ruby.network.average_hops             1.001064                      
system.ruby.network.average_packet_latency    13.933755                      
system.ruby.network.average_packet_network_latency    10.412439                      
system.ruby.network.average_packet_queueing_latency     3.521316                      
system.ruby.network.average_packet_vnet_latency |   24.983944                       |    5.005262                       |    5.686750                      
system.ruby.network.average_packet_vqueue_latency |    6.002242                       |    6.000001                       |    1.030024                      
system.ruby.network.avg_link_utilization     0.220119                      
system.ruby.network.avg_vc_load          |    0.099955     45.41%     45.41% |    0.011597      5.27%     50.68% |    0.011177      5.08%     55.76% |    0.011156      5.07%     60.82% |    0.019647      8.93%     69.75% |    0.002198      1.00%     70.75% |    0.002184      0.99%     71.74% |    0.002184      0.99%     72.73% |    0.044630     20.28%     93.01% |    0.005386      2.45%     95.45% |    0.005005      2.27%     97.73% |    0.004999      2.27%    100.00%
system.ruby.network.avg_vc_load::total       0.220119                      
system.ruby.network.ext_in_link_utilization     89070365                      
system.ruby.network.ext_out_link_utilization     89070365                      
system.ruby.network.flit_network_latency |   814842715                       |    53094540                       |   157999193                      
system.ruby.network.flit_queueing_latency |   325920703                       |    63646470                       |    25992590                      
system.ruby.network.flits_injected       |    54170783     60.82%     60.82% |    10607744     11.91%     72.73% |    24291838     27.27%    100.00%
system.ruby.network.flits_injected::total     89070365                      
system.ruby.network.flits_received       |    54170783     60.82%     60.82% |    10607744     11.91%     72.73% |    24291838     27.27%    100.00%
system.ruby.network.flits_received::total     89070365                      
system.ruby.network.int_link_utilization     89165143                      
system.ruby.network.packet_network_latency |   271563852                       |    53094540                       |   121573456                      
system.ruby.network.packet_queueing_latency |    65241575                       |    63646470                       |    22020230                      
system.ruby.network.packets_injected     |    10869535     25.36%     25.36% |    10607744     24.75%     50.12% |    21378370     49.88%    100.00%
system.ruby.network.packets_injected::total     42855649                      
system.ruby.network.packets_received     |    10869535     25.36%     25.36% |    10607744     24.75%     50.12% |    21378370     49.88%    100.00%
system.ruby.network.packets_received::total     42855649                      
system.ruby.network.routers0.buffer_reads     42590940                      
system.ruby.network.routers0.buffer_writes     42590940                      
system.ruby.network.routers0.crossbar_activity     42590940                      
system.ruby.network.routers0.sw_input_arbiter_activity     42670020                      
system.ruby.network.routers0.sw_output_arbiter_activity     42590940                      
system.ruby.network.routers1.buffer_reads     44281765                      
system.ruby.network.routers1.buffer_writes     44281765                      
system.ruby.network.routers1.crossbar_activity     44281765                      
system.ruby.network.routers1.sw_input_arbiter_activity     44343424                      
system.ruby.network.routers1.sw_output_arbiter_activity     44281765                      
system.ruby.network.routers2.buffer_reads     42949785                      
system.ruby.network.routers2.buffer_writes     42949785                      
system.ruby.network.routers2.crossbar_activity     42949785                      
system.ruby.network.routers2.sw_input_arbiter_activity     43012212                      
system.ruby.network.routers2.sw_output_arbiter_activity     42949785                      
system.ruby.network.routers3.buffer_reads     48413018                      
system.ruby.network.routers3.buffer_writes     48413018                      
system.ruby.network.routers3.crossbar_activity     48413018                      
system.ruby.network.routers3.sw_input_arbiter_activity     48472804                      
system.ruby.network.routers3.sw_output_arbiter_activity     48413018                      
system.ruby.outstanding_req_hist_seqr::bucket_size            1                      
system.ruby.outstanding_req_hist_seqr::max_bucket            9                      
system.ruby.outstanding_req_hist_seqr::samples   1206401169                      
system.ruby.outstanding_req_hist_seqr::mean     1.000464                      
system.ruby.outstanding_req_hist_seqr::gmean     1.000322                      
system.ruby.outstanding_req_hist_seqr::stdev     0.021547                      
system.ruby.outstanding_req_hist_seqr    |           0      0.00%      0.00% |  1205840817     99.95%     99.95% |      560352      0.05%    100.00% |           0      0.00%    100.00% |           0      0.00%    100.00% |           0      0.00%    100.00% |           0      0.00%    100.00% |           0      0.00%    100.00% |           0      0.00%    100.00% |           0      0.00%    100.00%
system.ruby.outstanding_req_hist_seqr::total   1206401169                      
system.switch_cpus0.Branches                 15485047                       # Number of branches fetched
system.switch_cpus0.committedInsts          166249918                       # Number of instructions committed
system.switch_cpus0.committedOps            283210236                       # Number of ops (including micro ops) committed
system.switch_cpus0.dtb.rdAccesses           32357616                       # TLB accesses on read requests
system.switch_cpus0.dtb.rdMisses               229408                       # TLB misses on read requests
system.switch_cpus0.dtb.wrAccesses            7979217                       # TLB accesses on write requests
system.switch_cpus0.dtb.wrMisses                 4074                       # TLB misses on write requests
system.switch_cpus0.idle_fraction            0.339047                       # Percentage of idle cycles
system.switch_cpus0.itb.rdAccesses                  0                       # TLB accesses on read requests
system.switch_cpus0.itb.rdMisses                    0                       # TLB misses on read requests
system.switch_cpus0.itb.wrAccesses          224971794                       # TLB accesses on write requests
system.switch_cpus0.itb.wrMisses                 8363                       # TLB misses on write requests
system.switch_cpus0.kern.inst.arm                   0                       # number of arm instructions executed
system.switch_cpus0.kern.inst.quiesce               0                       # number of quiesce instructions executed
system.switch_cpus0.not_idle_fraction        0.660953                       # Percentage of non-idle cycles
system.switch_cpus0.numCycles              1214092999                       # number of cpu cycles simulated
system.switch_cpus0.numWorkItemsCompleted            0                       # number of work items this cpu completed
system.switch_cpus0.numWorkItemsStarted             0                       # number of work items this cpu started
system.switch_cpus0.num_busy_cycles      802458636.911464                       # Number of busy cycles
system.switch_cpus0.num_cc_register_reads    107074866                       # number of times the CC registers were read
system.switch_cpus0.num_cc_register_writes     85418372                       # number of times the CC registers were written
system.switch_cpus0.num_conditional_control_insts     14449691                       # number of instructions that are conditional controls
system.switch_cpus0.num_fp_alu_accesses     121021765                       # Number of float alu accesses
system.switch_cpus0.num_fp_insts            121021765                       # number of float instructions
system.switch_cpus0.num_fp_register_reads    223844509                       # number of times the floating registers were read
system.switch_cpus0.num_fp_register_writes    111609687                       # number of times the floating registers were written
system.switch_cpus0.num_func_calls             735569                       # number of times a function call or return occured
system.switch_cpus0.num_idle_cycles      411634362.088536                       # Number of idle cycles
system.switch_cpus0.num_int_alu_accesses    182539929                       # Number of integer alu accesses
system.switch_cpus0.num_int_insts           182539929                       # number of integer instructions
system.switch_cpus0.num_int_register_reads    354740098                       # number of times the integer registers were read
system.switch_cpus0.num_int_register_writes    150302105                       # number of times the integer registers were written
system.switch_cpus0.num_load_insts           32006670                       # Number of load instructions
system.switch_cpus0.num_mem_refs             39974058                       # number of memory refs
system.switch_cpus0.num_store_insts           7967388                       # Number of store instructions
system.switch_cpus0.num_vec_alu_accesses            0                       # Number of vector alu accesses
system.switch_cpus0.num_vec_insts                   0                       # number of vector instructions
system.switch_cpus0.num_vec_register_reads            0                       # number of times the vector registers were read
system.switch_cpus0.num_vec_register_writes            0                       # number of times the vector registers were written
system.switch_cpus0.op_class::No_OpClass      2186701      0.77%      0.77% # Class of executed instruction
system.switch_cpus0.op_class::IntAlu        156913013     55.41%     56.18% # Class of executed instruction
system.switch_cpus0.op_class::IntMult         5226841      1.85%     58.02% # Class of executed instruction
system.switch_cpus0.op_class::IntDiv            29851      0.01%     58.03% # Class of executed instruction
system.switch_cpus0.op_class::FloatAdd       14405158      5.09%     63.12% # Class of executed instruction
system.switch_cpus0.op_class::FloatCmp              0      0.00%     63.12% # Class of executed instruction
system.switch_cpus0.op_class::FloatCvt            736      0.00%     63.12% # Class of executed instruction
system.switch_cpus0.op_class::FloatMult             0      0.00%     63.12% # Class of executed instruction
system.switch_cpus0.op_class::FloatMultAcc            0      0.00%     63.12% # Class of executed instruction
system.switch_cpus0.op_class::FloatDiv              0      0.00%     63.12% # Class of executed instruction
system.switch_cpus0.op_class::FloatMisc             0      0.00%     63.12% # Class of executed instruction
system.switch_cpus0.op_class::FloatSqrt             0      0.00%     63.12% # Class of executed instruction
system.switch_cpus0.op_class::SimdAdd               0      0.00%     63.12% # Class of executed instruction
system.switch_cpus0.op_class::SimdAddAcc            0      0.00%     63.12% # Class of executed instruction
system.switch_cpus0.op_class::SimdAlu         3751712      1.32%     64.44% # Class of executed instruction
system.switch_cpus0.op_class::SimdCmp               0      0.00%     64.44% # Class of executed instruction
system.switch_cpus0.op_class::SimdCvt               0      0.00%     64.44% # Class of executed instruction
system.switch_cpus0.op_class::SimdMisc        6253148      2.21%     66.65% # Class of executed instruction
system.switch_cpus0.op_class::SimdMult              0      0.00%     66.65% # Class of executed instruction
system.switch_cpus0.op_class::SimdMultAcc            0      0.00%     66.65% # Class of executed instruction
system.switch_cpus0.op_class::SimdShift             0      0.00%     66.65% # Class of executed instruction
system.switch_cpus0.op_class::SimdShiftAcc            0      0.00%     66.65% # Class of executed instruction
system.switch_cpus0.op_class::SimdDiv               0      0.00%     66.65% # Class of executed instruction
system.switch_cpus0.op_class::SimdSqrt              0      0.00%     66.65% # Class of executed instruction
system.switch_cpus0.op_class::SimdFloatAdd     27011076      9.54%     76.19% # Class of executed instruction
system.switch_cpus0.op_class::SimdFloatAlu            0      0.00%     76.19% # Class of executed instruction
system.switch_cpus0.op_class::SimdFloatCmp         7464      0.00%     76.19% # Class of executed instruction
system.switch_cpus0.op_class::SimdFloatCvt      6725606      2.37%     78.57% # Class of executed instruction
system.switch_cpus0.op_class::SimdFloatDiv       884712      0.31%     78.88% # Class of executed instruction
system.switch_cpus0.op_class::SimdFloatMisc            0      0.00%     78.88% # Class of executed instruction
system.switch_cpus0.op_class::SimdFloatMult     19562531      6.91%     85.79% # Class of executed instruction
system.switch_cpus0.op_class::SimdFloatMultAcc            0      0.00%     85.79% # Class of executed instruction
system.switch_cpus0.op_class::SimdFloatSqrt       277640      0.10%     85.89% # Class of executed instruction
system.switch_cpus0.op_class::SimdReduceAdd            0      0.00%     85.89% # Class of executed instruction
system.switch_cpus0.op_class::SimdReduceAlu            0      0.00%     85.89% # Class of executed instruction
system.switch_cpus0.op_class::SimdReduceCmp            0      0.00%     85.89% # Class of executed instruction
system.switch_cpus0.op_class::SimdFloatReduceAdd            0      0.00%     85.89% # Class of executed instruction
system.switch_cpus0.op_class::SimdFloatReduceCmp            0      0.00%     85.89% # Class of executed instruction
system.switch_cpus0.op_class::SimdAes               0      0.00%     85.89% # Class of executed instruction
system.switch_cpus0.op_class::SimdAesMix            0      0.00%     85.89% # Class of executed instruction
system.switch_cpus0.op_class::SimdSha1Hash            0      0.00%     85.89% # Class of executed instruction
system.switch_cpus0.op_class::SimdSha1Hash2            0      0.00%     85.89% # Class of executed instruction
system.switch_cpus0.op_class::SimdSha256Hash            0      0.00%     85.89% # Class of executed instruction
system.switch_cpus0.op_class::SimdSha256Hash2            0      0.00%     85.89% # Class of executed instruction
system.switch_cpus0.op_class::SimdShaSigma2            0      0.00%     85.89% # Class of executed instruction
system.switch_cpus0.op_class::SimdShaSigma3            0      0.00%     85.89% # Class of executed instruction
system.switch_cpus0.op_class::SimdPredAlu            0      0.00%     85.89% # Class of executed instruction
[...]
system.mem_ctrls1.llc.tags.warmup_cycle  100496467333500                       # Cycle when the warmup percentage was hit.
system.mem_ctrls1.llc.tags.occ_blocks::.ruby.dir_cntrl1  8845.979731                       # Average occupied blocks per requestor
system.mem_ctrls1.llc.tags.occ_percent::.ruby.dir_cntrl1     0.033745                       # Average percentage of cache occupancy
system.mem_ctrls1.llc.tags.occ_percent::total     0.033745                       # Average percentage of cache occupancy
system.mem_ctrls1.llc.tags.occ_task_id_blocks::1024        25429                       # Occupied blocks per task id
system.mem_ctrls1.llc.tags.age_task_id_blocks_1024::0            4                       # Occupied blocks per task id
system.mem_ctrls1.llc.tags.age_task_id_blocks_1024::1           52                       # Occupied blocks per task id
system.mem_ctrls1.llc.tags.age_task_id_blocks_1024::2          441                       # Occupied blocks per task id
system.mem_ctrls1.llc.tags.age_task_id_blocks_1024::3         1660                       # Occupied blocks per task id
system.mem_ctrls1.llc.tags.age_task_id_blocks_1024::4        23272                       # Occupied blocks per task id
system.mem_ctrls1.llc.tags.occ_task_id_percent::1024     0.097004                       # Percentage of cache occupancy per task id
system.mem_ctrls1.llc.tags.tag_accesses      47503093                       # Number of tag accesses
system.mem_ctrls1.llc.tags.data_accesses      2967354                       # Number of data accesses
system.mem_ctrls1.llc.tags.power_state.pwrStateResidencyTicks::UNDEFINED 101103653206001                       # Cumulative time (in ticks) in various power states
system.mem_ctrls1.rank1.actEnergy            26575080                       # Energy for activate commands per rank (pJ)
system.mem_ctrls1.rank1.preEnergy            14121195                       # Energy for precharge commands per rank (pJ)
system.mem_ctrls1.rank1.readEnergy           90977880                       # Energy for read commands per rank (pJ)
system.mem_ctrls1.rank1.writeEnergy                 0                       # Energy for write commands per rank (pJ)
system.mem_ctrls1.rank1.refreshEnergy    47930241840.000008                       # Energy for refresh commands per rank (pJ)
system.mem_ctrls1.rank1.actBackEnergy     14996531280                       # Energy for active background per rank (pJ)
system.mem_ctrls1.rank1.preBackEnergy    220530737280                       # Energy for precharge background per rank (pJ)
system.mem_ctrls1.rank1.actPowerDownEnergy            0                       # Energy for active power-down per rank (pJ)
system.mem_ctrls1.rank1.prePowerDownEnergy            0                       # Energy for precharge power-down per rank (pJ)
system.mem_ctrls1.rank1.selfRefreshEnergy            0                       # Energy for self refresh per rank (pJ)
system.mem_ctrls1.rank1.totalEnergy      283589184555                       # Total energy per rank (pJ)
system.mem_ctrls1.rank1.averagePower       467.054846                       # Core power per rank (mW)
system.mem_ctrls1.rank1.totalIdleTime               0                       # Total Idle time Per DRAM Rank
system.mem_ctrls1.rank1.memoryStateTime::IDLE 573190479000                       # Time in different power states
system.mem_ctrls1.rank1.memoryStateTime::REF  20275060000                       # Time in different power states
system.mem_ctrls1.rank1.memoryStateTime::SREF            0                       # Time in different power states
system.mem_ctrls1.rank1.memoryStateTime::PRE_PDN            0                       # Time in different power states
system.mem_ctrls1.rank1.memoryStateTime::ACT  13720506001                       # Time in different power states
system.mem_ctrls1.rank1.memoryStateTime::ACT_PDN            0                       # Time in different power states
system.mem_ctrls1.rank0.actEnergy            24240300                       # Energy for activate commands per rank (pJ)
system.mem_ctrls1.rank0.preEnergy            12872640                       # Energy for precharge commands per rank (pJ)
system.mem_ctrls1.rank0.readEnergy           90585180                       # Energy for read commands per rank (pJ)
system.mem_ctrls1.rank0.writeEnergy                 0                       # Energy for write commands per rank (pJ)
system.mem_ctrls1.rank0.refreshEnergy    47930241840.000008                       # Energy for refresh commands per rank (pJ)
system.mem_ctrls1.rank0.actBackEnergy     14488249170                       # Energy for active background per rank (pJ)
system.mem_ctrls1.rank0.preBackEnergy    220958763840                       # Energy for precharge background per rank (pJ)
system.mem_ctrls1.rank0.actPowerDownEnergy            0                       # Energy for active power-down per rank (pJ)
system.mem_ctrls1.rank0.prePowerDownEnergy            0                       # Energy for precharge power-down per rank (pJ)
system.mem_ctrls1.rank0.selfRefreshEnergy            0                       # Energy for self refresh per rank (pJ)
system.mem_ctrls1.rank0.totalEnergy      283504952970                       # Total energy per rank (pJ)
system.mem_ctrls1.rank0.averagePower       466.916121                       # Core power per rank (mW)
system.mem_ctrls1.rank0.totalIdleTime               0                       # Total Idle time Per DRAM Rank
system.mem_ctrls1.rank0.memoryStateTime::IDLE 574307807750                       # Time in different power states
system.mem_ctrls1.rank0.memoryStateTime::REF  20275060000                       # Time in different power states
system.mem_ctrls1.rank0.memoryStateTime::SREF            0                       # Time in different power states
system.mem_ctrls1.rank0.memoryStateTime::PRE_PDN            0                       # Time in different power states
system.mem_ctrls1.rank0.memoryStateTime::ACT  12603177251                       # Time in different power states
system.mem_ctrls1.rank0.memoryStateTime::ACT_PDN            0                       # Time in different power states
system.mem_ctrls1.power_state.pwrStateResidencyTicks::UNDEFINED 101103653206001                       # Cumulative time (in ticks) in various power states
system.cpu_voltage_domain.voltage                   1                       # Voltage in Volts
system.iobus.trans_dist::ReadReq                  475                       # Transaction distribution
system.iobus.trans_dist::ReadResp                 475                       # Transaction distribution
system.iobus.trans_dist::WriteReq                3338                       # Transaction distribution
system.iobus.trans_dist::WriteResp               3338                       # Transaction distribution
system.iobus.pkt_count_system.pc.south_bridge.io_apic.int_master::system.ruby.l1_cntrl1.sequencer.pio-slave-port          204                       # Packet count per connected master and slave (bytes)
system.iobus.pkt_count_system.pc.south_bridge.io_apic.int_master::total          204                       # Packet count per connected master and slave (bytes)
system.iobus.pkt_count_system.ruby.l1_cntrl0.sequencer.mem-master-port::system.pc.south_bridge.ide.pio          136                       # Packet count per connected master and slave (bytes)
system.iobus.pkt_count_system.ruby.l1_cntrl0.sequencer.mem-master-port::system.ruby.l1_cntrl0.sequencer.pio-slave-port         1444                       # Packet count per connected master and slave (bytes)
system.iobus.pkt_count_system.ruby.l1_cntrl0.sequencer.mem-master-port::system.ruby.l1_cntrl1.sequencer.pio-slave-port           16                       # Packet count per connected master and slave (bytes)
system.iobus.pkt_count_system.ruby.l1_cntrl0.sequencer.mem-master-port::system.ruby.l1_cntrl2.sequencer.pio-slave-port           20                       # Packet count per connected master and slave (bytes)
system.iobus.pkt_count_system.ruby.l1_cntrl0.sequencer.mem-master-port::system.ruby.l1_cntrl3.sequencer.pio-slave-port           18                       # Packet count per connected master and slave (bytes)
system.iobus.pkt_count_system.ruby.l1_cntrl0.sequencer.mem-master-port::total         1634                       # Packet count per connected master and slave (bytes)
system.iobus.pkt_count_system.ruby.l1_cntrl1.sequencer.mem-master-port::system.pc.south_bridge.ide.pio           60                       # Packet count per connected master and slave (bytes)
system.iobus.pkt_count_system.ruby.l1_cntrl1.sequencer.mem-master-port::system.pc.com_1.pio          790                       # Packet count per connected master and slave (bytes)
system.iobus.pkt_count_system.ruby.l1_cntrl1.sequencer.mem-master-port::system.ruby.l1_cntrl0.sequencer.pio-slave-port           20                       # Packet count per connected master and slave (bytes)
system.iobus.pkt_count_system.ruby.l1_cntrl1.sequencer.mem-master-port::system.ruby.l1_cntrl1.sequencer.pio-slave-port         1508                       # Packet count per connected master and slave (bytes)
system.iobus.pkt_count_system.ruby.l1_cntrl1.sequencer.mem-master-port::system.ruby.l1_cntrl2.sequencer.pio-slave-port           22                       # Packet count per connected master and slave (bytes)
system.iobus.pkt_count_system.ruby.l1_cntrl1.sequencer.mem-master-port::system.ruby.l1_cntrl3.sequencer.pio-slave-port           18                       # Packet count per connected master and slave (bytes)
system.iobus.pkt_count_system.ruby.l1_cntrl1.sequencer.mem-master-port::total         2418                       # Packet count per connected master and slave (bytes)
system.iobus.pkt_count_system.ruby.l1_cntrl2.sequencer.mem-master-port::system.ruby.l1_cntrl0.sequencer.pio-slave-port           20                       # Packet count per connected master and slave (bytes)
system.iobus.pkt_count_system.ruby.l1_cntrl2.sequencer.mem-master-port::system.ruby.l1_cntrl1.sequencer.pio-slave-port           14                       # Packet count per connected master and slave (bytes)
system.iobus.pkt_count_system.ruby.l1_cntrl2.sequencer.mem-master-port::system.ruby.l1_cntrl2.sequencer.pio-slave-port         1466                       # Packet count per connected master and slave (bytes)
system.iobus.pkt_count_system.ruby.l1_cntrl2.sequencer.mem-master-port::system.ruby.l1_cntrl3.sequencer.pio-slave-port           16                       # Packet count per connected master and slave (bytes)
system.iobus.pkt_count_system.ruby.l1_cntrl2.sequencer.mem-master-port::total         1516                       # Packet count per connected master and slave (bytes)
system.iobus.pkt_count_system.ruby.l1_cntrl3.sequencer.mem-master-port::system.pc.south_bridge.ide.pio           34                       # Packet count per connected master and slave (bytes)
system.iobus.pkt_count_system.ruby.l1_cntrl3.sequencer.mem-master-port::system.ruby.l1_cntrl0.sequencer.pio-slave-port           42                       # Packet count per connected master and slave (bytes)
system.iobus.pkt_count_system.ruby.l1_cntrl3.sequencer.mem-master-port::system.ruby.l1_cntrl1.sequencer.pio-slave-port           32                       # Packet count per connected master and slave (bytes)
system.iobus.pkt_count_system.ruby.l1_cntrl3.sequencer.mem-master-port::system.ruby.l1_cntrl2.sequencer.pio-slave-port           64                       # Packet count per connected master and slave (bytes)
system.iobus.pkt_count_system.ruby.l1_cntrl3.sequencer.mem-master-port::system.ruby.l1_cntrl3.sequencer.pio-slave-port         1682                       # Packet count per connected master and slave (bytes)
system.iobus.pkt_count_system.ruby.l1_cntrl3.sequencer.mem-master-port::total         1854                       # Packet count per connected master and slave (bytes)
system.iobus.pkt_count::total                    7626                       # Packet count per connected master and slave (bytes)
system.iobus.pkt_size_system.pc.south_bridge.io_apic.int_master::system.ruby.l1_cntrl1.sequencer.pio-slave-port          408                       # Cumulative packet size per connected master and slave (bytes)
system.iobus.pkt_size_system.pc.south_bridge.io_apic.int_master::total          408                       # Cumulative packet size per connected master and slave (bytes)
system.iobus.pkt_size_system.ruby.l1_cntrl0.sequencer.mem-master-port::system.pc.south_bridge.ide.pio           80                       # Cumulative packet size per connected master and slave (bytes)
system.iobus.pkt_size_system.ruby.l1_cntrl0.sequencer.mem-master-port::system.ruby.l1_cntrl0.sequencer.pio-slave-port         2888                       # Cumulative packet size per connected master and slave (bytes)
system.iobus.pkt_size_system.ruby.l1_cntrl0.sequencer.mem-master-port::system.ruby.l1_cntrl1.sequencer.pio-slave-port           32                       # Cumulative packet size per connected master and slave (bytes)
system.iobus.pkt_size_system.ruby.l1_cntrl0.sequencer.mem-master-port::system.ruby.l1_cntrl2.sequencer.pio-slave-port           40                       # Cumulative packet size per connected master and slave (bytes)
system.iobus.pkt_size_system.ruby.l1_cntrl0.sequencer.mem-master-port::system.ruby.l1_cntrl3.sequencer.pio-slave-port           36                       # Cumulative packet size per connected master and slave (bytes)
system.iobus.pkt_size_system.ruby.l1_cntrl0.sequencer.mem-master-port::total         3076                       # Cumulative packet size per connected master and slave (bytes)
system.iobus.pkt_size_system.ruby.l1_cntrl1.sequencer.mem-master-port::system.pc.south_bridge.ide.pio           30                       # Cumulative packet size per connected master and slave (bytes)
system.iobus.pkt_size_system.ruby.l1_cntrl1.sequencer.mem-master-port::system.pc.com_1.pio          395                       # Cumulative packet size per connected master and slave (bytes)
system.iobus.pkt_size_system.ruby.l1_cntrl1.sequencer.mem-master-port::system.ruby.l1_cntrl0.sequencer.pio-slave-port           40                       # Cumulative packet size per connected master and slave (bytes)
system.iobus.pkt_size_system.ruby.l1_cntrl1.sequencer.mem-master-port::system.ruby.l1_cntrl1.sequencer.pio-slave-port         3016                       # Cumulative packet size per connected master and slave (bytes)
system.iobus.pkt_size_system.ruby.l1_cntrl1.sequencer.mem-master-port::system.ruby.l1_cntrl2.sequencer.pio-slave-port           44                       # Cumulative packet size per connected master and slave (bytes)
system.iobus.pkt_size_system.ruby.l1_cntrl1.sequencer.mem-master-port::system.ruby.l1_cntrl3.sequencer.pio-slave-port           36                       # Cumulative packet size per connected master and slave (bytes)
system.iobus.pkt_size_system.ruby.l1_cntrl1.sequencer.mem-master-port::total         3561                       # Cumulative packet size per connected master and slave (bytes)
system.iobus.pkt_size_system.ruby.l1_cntrl2.sequencer.mem-master-port::system.ruby.l1_cntrl0.sequencer.pio-slave-port           40                       # Cumulative packet size per connected master and slave (bytes)
system.iobus.pkt_size_system.ruby.l1_cntrl2.sequencer.mem-master-port::system.ruby.l1_cntrl1.sequencer.pio-slave-port           28                       # Cumulative packet size per connected master and slave (bytes)
system.iobus.pkt_size_system.ruby.l1_cntrl2.sequencer.mem-master-port::system.ruby.l1_cntrl2.sequencer.pio-slave-port         2932                       # Cumulative packet size per connected master and slave (bytes)
system.iobus.pkt_size_system.ruby.l1_cntrl2.sequencer.mem-master-port::system.ruby.l1_cntrl3.sequencer.pio-slave-port           32                       # Cumulative packet size per connected master and slave (bytes)
system.iobus.pkt_size_system.ruby.l1_cntrl2.sequencer.mem-master-port::total         3032                       # Cumulative packet size per connected master and slave (bytes)
system.iobus.pkt_size_system.ruby.l1_cntrl3.sequencer.mem-master-port::system.pc.south_bridge.ide.pio           20                       # Cumulative packet size per connected master and slave (bytes)
system.iobus.pkt_size_system.ruby.l1_cntrl3.sequencer.mem-master-port::system.ruby.l1_cntrl0.sequencer.pio-slave-port           84                       # Cumulative packet size per connected master and slave (bytes)
system.iobus.pkt_size_system.ruby.l1_cntrl3.sequencer.mem-master-port::system.ruby.l1_cntrl1.sequencer.pio-slave-port           64                       # Cumulative packet size per connected master and slave (bytes)
system.iobus.pkt_size_system.ruby.l1_cntrl3.sequencer.mem-master-port::system.ruby.l1_cntrl2.sequencer.pio-slave-port          128                       # Cumulative packet size per connected master and slave (bytes)
system.iobus.pkt_size_system.ruby.l1_cntrl3.sequencer.mem-master-port::system.ruby.l1_cntrl3.sequencer.pio-slave-port         3364                       # Cumulative packet size per connected master and slave (bytes)
system.iobus.pkt_size_system.ruby.l1_cntrl3.sequencer.mem-master-port::total         3660                       # Cumulative packet size per connected master and slave (bytes)
system.iobus.pkt_size::total                    13737                       # Cumulative packet size per connected master and slave (bytes)
system.iobus.reqLayer2.occupancy               191000                       # Layer occupancy (ticks)
system.iobus.reqLayer2.utilization                0.0                       # Layer utilization (%)
system.iobus.power_state.pwrStateResidencyTicks::UNDEFINED 101103653206001                       # Cumulative time (in ticks) in various power states
system.iobus.reqLayer19.occupancy             1803060                       # Layer occupancy (ticks)
system.iobus.reqLayer19.utilization               0.0                       # Layer utilization (%)
system.iobus.reqLayer17.occupancy             1756058                       # Layer occupancy (ticks)
system.iobus.reqLayer17.utilization               0.0                       # Layer utilization (%)
system.iobus.reqLayer12.occupancy              504000                       # Layer occupancy (ticks)
system.iobus.reqLayer12.utilization               0.0                       # Layer utilization (%)
system.iobus.reqLayer18.occupancy             1989054                       # Layer occupancy (ticks)
system.iobus.reqLayer18.utilization               0.0                       # Layer utilization (%)
system.iobus.respLayer9.occupancy             1420500                       # Layer occupancy (ticks)
system.iobus.respLayer9.utilization               0.0                       # Layer utilization (%)
system.iobus.respLayer5.occupancy             1923000                       # Layer occupancy (ticks)
system.iobus.respLayer5.utilization               0.0                       # Layer utilization (%)
system.iobus.respLayer7.occupancy             1149000                       # Layer occupancy (ticks)
system.iobus.respLayer7.utilization               0.0                       # Layer utilization (%)
system.iobus.respLayer0.occupancy              154495                       # Layer occupancy (ticks)
system.iobus.respLayer0.utilization               0.0                       # Layer utilization (%)
system.iobus.respLayer3.occupancy             1218500                       # Layer occupancy (ticks)
system.iobus.respLayer3.utilization               0.0                       # Layer utilization (%)
system.iobus.reqLayer20.occupancy             2004360                       # Layer occupancy (ticks)
system.iobus.reqLayer20.utilization               0.0                       # Layer utilization (%)

---------- End Simulation Statistics   ----------
