
---------- Begin Simulation Statistics ----------
final_tick                               101811038996501                       # Number of ticks from beginning of simulation (restored from checkpoints and never reset)
host_inst_rate                                2800830                       # Simulator instruction rate (inst/s)
host_mem_usage                                1759176                       # Number of bytes of host memory used
host_op_rate                                  2888273                       # Simulator op (including micro ops) rate (op/s)
host_seconds                                  2313.26                       # Real time elapsed on the host
host_tick_rate                              114206423                       # Simulator tick rate (ticks/s)
sim_freq                                 1000000000000                       # Frequency of simulated ticks
sim_insts                                  6479057349                       # Number of instructions simulated
sim_ops                                    6681336001                       # Number of ops (including micro ops) simulated
sim_seconds                                  0.264190                       # Number of seconds simulated
sim_ticks                                264189523501                       # Number of ticks simulated
system.cpu0.committedInsts                          0                       # Number of instructions committed
system.cpu0.dtb.rdAccesses                          0                       # TLB accesses on read requests
system.cpu0.dtb.rdMisses                            0                       # TLB misses on read requests
system.cpu0.dtb.wrAccesses                          0                       # TLB accesses on write requests
system.cpu0.dtb.wrMisses                            0                       # TLB misses on write requests
system.cpu0.itb.rdAccesses                          0                       # TLB accesses on read requests
system.cpu0.itb.rdMisses                            0                       # TLB misses on read requests
system.cpu0.itb.wrAccesses                          0                       # TLB accesses on write requests
system.cpu0.itb.wrMisses                            0                       # TLB misses on write requests
system.cpu0.kern.inst.arm                           0                       # number of arm instructions executed
system.cpu0.kern.inst.quiesce                       0                       # number of quiesce instructions executed
system.cpu0.numCoalescedMMIO                        0                       # number of coalesced memory mapped IO requests
system.cpu0.numCycles                               0                       # number of cpu cycles simulated
system.cpu0.numExitSignal                           0                       # exits due to signal delivery
system.cpu0.numHalt                                 0                       # number of VM exits due to wait for interrupt instructions
system.cpu0.numHypercalls                           0                       # number of hypercalls
system.cpu0.numIO                                   0                       # number of VM exits due to legacy IO
system.cpu0.numInterrupts                           0                       # number of interrupts delivered
system.cpu0.numMMIO                                 0                       # number of VM exits due to memory mapped IO
system.cpu0.numVMExits                              0                       # total number of KVM exits
system.cpu0.numVMHalfEntries                        0                       # number of KVM entries to finalize pending operations
system.cpu0.numWorkItemsCompleted                   0                       # number of work items this cpu completed
system.cpu0.numWorkItemsStarted                     0                       # number of work items this cpu started
system.cpu1.committedInsts                          0                       # Number of instructions committed
system.cpu1.dtb.rdAccesses                          0                       # TLB accesses on read requests
system.cpu1.dtb.rdMisses                            0                       # TLB misses on read requests
system.cpu1.dtb.wrAccesses                          0                       # TLB accesses on write requests
system.cpu1.dtb.wrMisses                            0                       # TLB misses on write requests
system.cpu1.itb.rdAccesses                          0                       # TLB accesses on read requests
system.cpu1.itb.rdMisses                            0                       # TLB misses on read requests
system.cpu1.itb.wrAccesses                          0                       # TLB accesses on write requests
system.cpu1.itb.wrMisses                            0                       # TLB misses on write requests
system.cpu1.kern.inst.arm                           0                       # number of arm instructions executed
system.cpu1.kern.inst.quiesce                       0                       # number of quiesce instructions executed
system.cpu1.numCoalescedMMIO                        0                       # number of coalesced memory mapped IO requests
system.cpu1.numCycles                               0                       # number of cpu cycles simulated
system.cpu1.numExitSignal                           0                       # exits due to signal delivery
system.cpu1.numHalt                                 0                       # number of VM exits due to wait for interrupt instructions
system.cpu1.numHypercalls                           0                       # number of hypercalls
system.cpu1.numIO                                   0                       # number of VM exits due to legacy IO
system.cpu1.numInterrupts                           0                       # number of interrupts delivered
system.cpu1.numMMIO                                 0                       # number of VM exits due to memory mapped IO
system.cpu1.numVMExits                              0                       # total number of KVM exits
system.cpu1.numVMHalfEntries                        0                       # number of KVM entries to finalize pending operations
system.cpu1.numWorkItemsCompleted                   0                       # number of work items this cpu completed
system.cpu1.numWorkItemsStarted                     0                       # number of work items this cpu started
system.cpu2.committedInsts                          0                       # Number of instructions committed
system.cpu2.dtb.rdAccesses                          0                       # TLB accesses on read requests
system.cpu2.dtb.rdMisses                            0                       # TLB misses on read requests
system.cpu2.dtb.wrAccesses                          0                       # TLB accesses on write requests
system.cpu2.dtb.wrMisses                            0                       # TLB misses on write requests
system.cpu2.itb.rdAccesses                          0                       # TLB accesses on read requests
system.cpu2.itb.rdMisses                            0                       # TLB misses on read requests
system.cpu2.itb.wrAccesses                          0                       # TLB accesses on write requests
system.cpu2.itb.wrMisses                            0                       # TLB misses on write requests
system.cpu2.kern.inst.arm                           0                       # number of arm instructions executed
system.cpu2.kern.inst.quiesce                       0                       # number of quiesce instructions executed
system.cpu2.numCoalescedMMIO                        0                       # number of coalesced memory mapped IO requests
system.cpu2.numCycles                               0                       # number of cpu cycles simulated
system.cpu2.numExitSignal                           0                       # exits due to signal delivery
system.cpu2.numHalt                                 0                       # number of VM exits due to wait for interrupt instructions
system.cpu2.numHypercalls                           0                       # number of hypercalls
system.cpu2.numIO                                   0                       # number of VM exits due to legacy IO
system.cpu2.numInterrupts                           0                       # number of interrupts delivered
system.cpu2.numMMIO                                 0                       # number of VM exits due to memory mapped IO
system.cpu2.numVMExits                              0                       # total number of KVM exits
system.cpu2.numVMHalfEntries                        0                       # number of KVM entries to finalize pending operations
system.cpu2.numWorkItemsCompleted                   0                       # number of work items this cpu completed
system.cpu2.numWorkItemsStarted                     0                       # number of work items this cpu started
system.cpu3.committedInsts                          0                       # Number of instructions committed
system.cpu3.dtb.rdAccesses                          0                       # TLB accesses on read requests
system.cpu3.dtb.rdMisses                            0                       # TLB misses on read requests
system.cpu3.dtb.wrAccesses                          0                       # TLB accesses on write requests
system.cpu3.dtb.wrMisses                            0                       # TLB misses on write requests
system.cpu3.itb.rdAccesses                          0                       # TLB accesses on read requests
system.cpu3.itb.rdMisses                            0                       # TLB misses on read requests
system.cpu3.itb.wrAccesses                          0                       # TLB accesses on write requests
system.cpu3.itb.wrMisses                            0                       # TLB misses on write requests
system.cpu3.kern.inst.arm                           0                       # number of arm instructions executed
system.cpu3.kern.inst.quiesce                       0                       # number of quiesce instructions executed
system.cpu3.numCoalescedMMIO                        0                       # number of coalesced memory mapped IO requests
system.cpu3.numCycles                               0                       # number of cpu cycles simulated
system.cpu3.numExitSignal                           0                       # exits due to signal delivery
system.cpu3.numHalt                                 0                       # number of VM exits due to wait for interrupt instructions
system.cpu3.numHypercalls                           0                       # number of hypercalls
system.cpu3.numIO                                   0                       # number of VM exits due to legacy IO
system.cpu3.numInterrupts                           0                       # number of interrupts delivered
system.cpu3.numMMIO                                 0                       # number of VM exits due to memory mapped IO
system.cpu3.numVMExits                              0                       # total number of KVM exits
system.cpu3.numVMHalfEntries                        0                       # number of KVM entries to finalize pending operations
system.cpu3.numWorkItemsCompleted                   0                       # number of work items this cpu completed
system.cpu3.numWorkItemsStarted                     0                       # number of work items this cpu started
system.pc.south_bridge.ide.disks.dma_read_bytes            0                       # Number of bytes transfered via DMA reads (not PRD).
system.pc.south_bridge.ide.disks.dma_read_full_pages            0                       # Number of full page size DMA reads (not PRD).
system.pc.south_bridge.ide.disks.dma_read_txs            0                       # Number of DMA read transactions (not PRD).
system.pc.south_bridge.ide.disks.dma_write_bytes       131072                       # Number of bytes transfered via DMA writes.
system.pc.south_bridge.ide.disks.dma_write_full_pages           32                       # Number of full page size DMA writes.
system.pc.south_bridge.ide.disks.dma_write_txs           32                       # Number of DMA write transactions.
system.ruby.DMA_Controller.I.allocI_load |           4    100.00%    100.00% |           0      0.00%    100.00%
system.ruby.DMA_Controller.I.allocI_load::total            4                      
system.ruby.DMA_Controller.I.allocI_store |        2048    100.00%    100.00% |           0      0.00%    100.00%
system.ruby.DMA_Controller.I.allocI_store::total         2048                      
system.ruby.DMA_Controller.I.deallocfwdfrom_in |        1092    100.00%    100.00% |           0      0.00%    100.00%
system.ruby.DMA_Controller.I.deallocfwdfrom_in::total         1092                      
system.ruby.DMA_Controller.M.allocTBE    |        1098    100.00%    100.00% |           0      0.00%    100.00%
system.ruby.DMA_Controller.M.allocTBE::total         1098                      
system.ruby.DMA_Controller.M.externalstoreMrespfrom_in |        2048    100.00%    100.00% |           0      0.00%    100.00%
system.ruby.DMA_Controller.M.externalstoreMrespfrom_in::total         2048                      
system.ruby.DMA_Controller.M_evict.Stallmandatory_in |       16202    100.00%    100.00% |           0      0.00%    100.00%
system.ruby.DMA_Controller.M_evict.Stallmandatory_in::total        16202                      
system.ruby.DMA_Controller.S.SloadSEvent |          27    100.00%    100.00% |           0      0.00%    100.00%
system.ruby.DMA_Controller.S.SloadSEvent::total           27                      
system.ruby.DMA_Controller.S.allocTBE    |           4    100.00%    100.00% |           0      0.00%    100.00%
system.ruby.DMA_Controller.S.allocTBE::total            4                      
system.ruby.DMA_Controller.S.deallocTBE  |           9    100.00%    100.00% |           0      0.00%    100.00%
system.ruby.DMA_Controller.S.deallocTBE::total            9                      
system.ruby.DMA_Controller.S.externalloadSrespfrom_in |           4    100.00%    100.00% |           0      0.00%    100.00%
system.ruby.DMA_Controller.S.externalloadSrespfrom_in::total            4                      
system.ruby.DMA_Controller.S_evict.Stallmandatory_in |           6    100.00%    100.00% |           0      0.00%    100.00%
system.ruby.DMA_Controller.S_evict.Stallmandatory_in::total            6                      
system.ruby.DMA_Controller.SloadSEvent   |          27    100.00%    100.00% |           0      0.00%    100.00%
system.ruby.DMA_Controller.SloadSEvent::total           27                      
system.ruby.DMA_Controller.Stallmandatory_in |       16208    100.00%    100.00% |           0      0.00%    100.00%
system.ruby.DMA_Controller.Stallmandatory_in::total        16208                      
system.ruby.DMA_Controller.allocI_load   |           4    100.00%    100.00% |           0      0.00%    100.00%
system.ruby.DMA_Controller.allocI_load::total            4                      
system.ruby.DMA_Controller.allocI_store  |        2048    100.00%    100.00% |           0      0.00%    100.00%
system.ruby.DMA_Controller.allocI_store::total         2048                      
system.ruby.DMA_Controller.allocTBE      |        1102    100.00%    100.00% |           0      0.00%    100.00%
system.ruby.DMA_Controller.allocTBE::total         1102                      
system.ruby.DMA_Controller.deallocTBE    |           9    100.00%    100.00% |           0      0.00%    100.00%
system.ruby.DMA_Controller.deallocTBE::total            9                      
system.ruby.DMA_Controller.deallocfwdfrom_in |        1092    100.00%    100.00% |           0      0.00%    100.00%
system.ruby.DMA_Controller.deallocfwdfrom_in::total         1092                      
system.ruby.DMA_Controller.externalloadSrespfrom_in |           4    100.00%    100.00% |           0      0.00%    100.00%
system.ruby.DMA_Controller.externalloadSrespfrom_in::total            4                      
system.ruby.DMA_Controller.externalstoreMrespfrom_in |        2048    100.00%    100.00% |           0      0.00%    100.00%
system.ruby.DMA_Controller.externalstoreMrespfrom_in::total         2048                      
system.ruby.Directory_Controller.I.allocTBE |     1660459     24.92%     24.92% |     1662703     24.95%     49.87% |     1693102     25.41%     75.27% |     1647672     24.73%    100.00%
system.ruby.Directory_Controller.I.allocTBE::total      6663936                      
system.ruby.Directory_Controller.I.deallocTBE |     1659642     24.92%     24.92% |     1661855     24.95%     49.87% |     1692278     25.41%     75.27% |     1646852     24.73%    100.00%
system.ruby.Directory_Controller.I.deallocTBE::total      6660627                      
system.ruby.Directory_Controller.I_GetML1C1C1_0.Stallreqto_in |           8     32.00%     32.00% |           5     20.00%     52.00% |           6     24.00%     76.00% |           6     24.00%    100.00%
system.ruby.Directory_Controller.I_GetML1C1C1_0.Stallreqto_in::total           25                      
system.ruby.Directory_Controller.I_GetSL1C1C1_0.Stallreqto_in |        1555     19.31%     19.31% |        1434     17.81%     37.13% |        3476     43.17%     80.30% |        1586     19.70%    100.00%
system.ruby.Directory_Controller.I_GetSL1C1C1_0.Stallreqto_in::total         8051                      
system.ruby.Directory_Controller.M.allocTBE |      639249     24.95%     24.95% |      646337     25.23%     50.17% |      638406     24.92%     75.09% |      638239     24.91%    100.00%
system.ruby.Directory_Controller.M.allocTBE::total      2562231                      
system.ruby.Directory_Controller.M.deallocTBE |      639616     24.95%     24.95% |      646711     25.23%     50.17% |      638788     24.92%     75.09% |      638623     24.91%    100.00%
system.ruby.Directory_Controller.M.deallocTBE::total      2563738                      
system.ruby.Directory_Controller.M_GetM.Progress |        4854     25.00%     25.00% |        4914     25.31%     50.31% |        4844     24.95%     75.25% |        4805     24.75%    100.00%
system.ruby.Directory_Controller.M_GetM.Progress::total        19417                      
system.ruby.Directory_Controller.M_GetM.Stallreqto_in |           3     33.33%     33.33% |           3     33.33%     66.67% |           0      0.00%     66.67% |           3     33.33%    100.00%
system.ruby.Directory_Controller.M_GetM.Stallreqto_in::total            9                      
system.ruby.Directory_Controller.M_GetS.Progress |         698     23.71%     23.71% |         585     19.87%     43.58% |         858     29.14%     72.72% |         803     27.28%    100.00%
system.ruby.Directory_Controller.M_GetS.Progress::total         2944                      
system.ruby.Directory_Controller.M_GetS.Stallreqto_in |          21     72.41%     72.41% |           2      6.90%     79.31% |           2      6.90%     86.21% |           4     13.79%    100.00%
system.ruby.Directory_Controller.M_GetS.Stallreqto_in::total           29                      
system.ruby.Directory_Controller.M_GetS_WBL1C1C1_0.Stallreqto_in |          37     13.96%     13.96% |          28     10.57%     24.53% |          76     28.68%     53.21% |         124     46.79%    100.00%
system.ruby.Directory_Controller.M_GetS_WBL1C1C1_0.Stallreqto_in::total          265                      
system.ruby.Directory_Controller.M_PutML1C1C1_0.Stallreqto_in |           2    100.00%    100.00% |           0      0.00%    100.00% |           0      0.00%    100.00% |           0      0.00%    100.00%
system.ruby.Directory_Controller.M_PutML1C1C1_0.Stallreqto_in::total            2                      
system.ruby.Directory_Controller.Progress |        5645     24.82%     24.82% |        5534     24.34%     49.16% |        5926     26.06%     75.22% |        5635     24.78%    100.00%
system.ruby.Directory_Controller.Progress::total        22740                      
system.ruby.Directory_Controller.S.allocTBE |     2395395     27.60%     27.60% |     2045910     23.57%     51.17% |     2292685     26.42%     77.59% |     1944860     22.41%    100.00%
system.ruby.Directory_Controller.S.allocTBE::total      8678850                      
system.ruby.Directory_Controller.S.deallocTBE |     2395845     27.60%     27.60% |     2046384     23.57%     51.17% |     2293127     26.42%     77.59% |     1945296     22.41%    100.00%
system.ruby.Directory_Controller.S.deallocTBE::total      8680652                      
system.ruby.Directory_Controller.S_GetM.Progress |          93     24.54%     24.54% |          35      9.23%     33.77% |         224     59.10%     92.88% |          27      7.12%    100.00%
system.ruby.Directory_Controller.S_GetM.Progress::total          379                      
system.ruby.Directory_Controller.S_GetM.Stallreqto_in |          17     35.42%     35.42% |          12     25.00%     60.42% |           7     14.58%     75.00% |          12     25.00%    100.00%
system.ruby.Directory_Controller.S_GetM.Stallreqto_in::total           48                      
system.ruby.Directory_Controller.S_GetM.allocTBE |         928     25.90%     25.90% |         714     19.93%     45.83% |         995     27.77%     73.60% |         946     26.40%    100.00%
system.ruby.Directory_Controller.S_GetM.allocTBE::total         3583                      
system.ruby.Directory_Controller.S_GetM.deallocTBE |         928     25.90%     25.90% |         714     19.93%     45.83% |         995     27.77%     73.60% |         946     26.40%    100.00%
system.ruby.Directory_Controller.S_GetM.deallocTBE::total         3583                      
system.ruby.Directory_Controller.S_GetML1C1C1_0.Stallreqto_in |           9     26.47%     26.47% |           9     26.47%     52.94% |           6     17.65%     70.59% |          10     29.41%    100.00%
system.ruby.Directory_Controller.S_GetML1C1C1_0.Stallreqto_in::total           34                      
system.ruby.Directory_Controller.S_GetSL1C1C1_0.Stallreqto_in |       10184     37.25%     37.25% |        1567      5.73%     42.99% |       14480     52.97%     95.95% |        1106      4.05%    100.00%
system.ruby.Directory_Controller.S_GetSL1C1C1_0.Stallreqto_in::total        27337                      
system.ruby.Directory_Controller.Stallreqto_in |       11836     33.06%     33.06% |        3060      8.55%     41.61% |       18053     50.43%     92.04% |        2851      7.96%    100.00%
system.ruby.Directory_Controller.Stallreqto_in::total        35800                      
system.ruby.Directory_Controller.allocTBE |     4696031     26.22%     26.22% |     4355664     24.32%     50.54% |     4625188     25.83%     76.37% |     4231717     23.63%    100.00%
system.ruby.Directory_Controller.allocTBE::total     17908600                      
system.ruby.Directory_Controller.deallocTBE |     4696031     26.22%     26.22% |     4355664     24.32%     50.54% |     4625188     25.83%     76.37% |     4231717     23.63%    100.00%
system.ruby.Directory_Controller.deallocTBE::total     17908600                      
system.ruby.IFETCH.hit_latency_hist_seqr::bucket_size            1                      
system.ruby.IFETCH.hit_latency_hist_seqr::max_bucket            9                      
system.ruby.IFETCH.hit_latency_hist_seqr::samples    385911428                      
system.ruby.IFETCH.hit_latency_hist_seqr |   385911428    100.00%    100.00% |           0      0.00%    100.00% |           0      0.00%    100.00% |           0      0.00%    100.00% |           0      0.00%    100.00% |           0      0.00%    100.00% |           0      0.00%    100.00% |           0      0.00%    100.00% |           0      0.00%    100.00% |           0      0.00%    100.00%
system.ruby.IFETCH.hit_latency_hist_seqr::total    385911428                      
system.ruby.IFETCH.latency_hist_seqr::bucket_size            1                      
system.ruby.IFETCH.latency_hist_seqr::max_bucket            9                      
system.ruby.IFETCH.latency_hist_seqr::samples    386948014                      
system.ruby.IFETCH.latency_hist_seqr     |   386948014    100.00%    100.00% |           0      0.00%    100.00% |           0      0.00%    100.00% |           0      0.00%    100.00% |           0      0.00%    100.00% |           0      0.00%    100.00% |           0      0.00%    100.00% |           0      0.00%    100.00% |           0      0.00%    100.00% |           0      0.00%    100.00%
system.ruby.IFETCH.latency_hist_seqr::total    386948014                      
system.ruby.IFETCH.miss_latency_hist_seqr::bucket_size            1                      
system.ruby.IFETCH.miss_latency_hist_seqr::max_bucket            9                      
system.ruby.IFETCH.miss_latency_hist_seqr::samples      1036586                      
system.ruby.IFETCH.miss_latency_hist_seqr |     1036586    100.00%    100.00% |           0      0.00%    100.00% |           0      0.00%    100.00% |           0      0.00%    100.00% |           0      0.00%    100.00% |           0      0.00%    100.00% |           0      0.00%    100.00% |           0      0.00%    100.00% |           0      0.00%    100.00% |           0      0.00%    100.00%
system.ruby.IFETCH.miss_latency_hist_seqr::total      1036586                      
system.ruby.L1Cache_Controller.I.allocI_load |     1617410     24.99%     24.99% |     1630058     25.19%     50.18% |     1614108     24.94%     75.12% |     1610000     24.88%    100.00%
system.ruby.L1Cache_Controller.I.allocI_load::total      6471576                      
system.ruby.L1Cache_Controller.I.allocI_store |      606671     25.02%     25.02% |      611842     25.24%     50.26% |      600610     24.77%     75.03% |      605310     24.97%    100.00%
system.ruby.L1Cache_Controller.I.allocI_store::total      2424433                      
system.ruby.L1Cache_Controller.I.deallocfwdfrom_in |     2223060     25.00%     25.00% |     2240905     25.20%     50.20% |     2213714     24.90%     75.10% |     2214294     24.90%    100.00%
system.ruby.L1Cache_Controller.I.deallocfwdfrom_in::total      8891973                      
system.ruby.L1Cache_Controller.I_store.Progress |         959     65.11%     65.11% |         192     13.03%     78.14% |         161     10.93%     89.07% |         161     10.93%    100.00%
system.ruby.L1Cache_Controller.I_store.Progress::total         1473                      
system.ruby.L1Cache_Controller.I_store.Stallfwdfrom_in |           7     14.89%     14.89% |          18     38.30%     53.19% |          16     34.04%     87.23% |           6     12.77%    100.00%
system.ruby.L1Cache_Controller.I_store.Stallfwdfrom_in::total           47                      
system.ruby.L1Cache_Controller.M.MloadMEvent |     5355703     25.33%     25.33% |     5271982     24.93%     50.26% |     5256850     24.86%     75.13% |     5259214     24.87%    100.00%
system.ruby.L1Cache_Controller.M.MloadMEvent::total     21143749                      
system.ruby.L1Cache_Controller.M.MstoreMEvent |     6648936     25.30%     25.30% |     6536932     24.87%     50.17% |     6563439     24.97%     75.14% |     6535630     24.86%    100.00%
system.ruby.L1Cache_Controller.M.MstoreMEvent::total     26284937                      
system.ruby.L1Cache_Controller.M.allocTBE |      642292     25.08%     25.08% |      644929     25.18%     50.26% |      635085     24.80%     75.06% |      638823     24.94%    100.00%
system.ruby.L1Cache_Controller.M.allocTBE::total      2561129                      
system.ruby.L1Cache_Controller.M.externalstoreMrespfrom_in |      642454     25.08%     25.08% |      645045     25.18%     50.26% |      635213     24.80%     75.06% |      638973     24.94%    100.00%
system.ruby.L1Cache_Controller.M.externalstoreMrespfrom_in::total      2561685                      
system.ruby.L1Cache_Controller.M_evict.Stallmandatory_in |         815     26.78%     26.78% |         666     21.89%     48.67% |         777     25.53%     74.20% |         785     25.80%    100.00%
system.ruby.L1Cache_Controller.M_evict.Stallmandatory_in::total         3043                      
system.ruby.L1Cache_Controller.M_evict_x_I.Progress |           1     25.00%     25.00% |           2     50.00%     75.00% |           1     25.00%    100.00% |           0      0.00%    100.00%
system.ruby.L1Cache_Controller.M_evict_x_I.Progress::total            4                      
system.ruby.L1Cache_Controller.M_evict_x_I.Stallmandatory_in |           4     28.57%     28.57% |           7     50.00%     78.57% |           3     21.43%    100.00% |           0      0.00%    100.00%
system.ruby.L1Cache_Controller.M_evict_x_I.Stallmandatory_in::total           14                      
system.ruby.L1Cache_Controller.MloadMEvent |     5355703     25.33%     25.33% |     5271982     24.93%     50.26% |     5256850     24.86%     75.13% |     5259214     24.87%    100.00%
system.ruby.L1Cache_Controller.MloadMEvent::total     21143749                      
system.ruby.L1Cache_Controller.MstoreMEvent |     6648936     25.30%     25.30% |     6536932     24.87%     50.17% |     6563439     24.97%     75.14% |     6535630     24.86%    100.00%
system.ruby.L1Cache_Controller.MstoreMEvent::total     26284937                      
system.ruby.L1Cache_Controller.Progress  |       37670     26.67%     26.67% |       33898     24.00%     50.67% |       35315     25.00%     75.68% |       34350     24.32%    100.00%
system.ruby.L1Cache_Controller.Progress::total       141233                      
system.ruby.L1Cache_Controller.S.SloadSEvent |   112600886     25.04%     25.04% |   112297040     24.97%     50.02% |   112511767     25.02%     75.04% |   112230469     24.96%    100.00%
system.ruby.L1Cache_Controller.S.SloadSEvent::total    449640162                      
system.ruby.L1Cache_Controller.S.allocTBE |     1617337     24.99%     24.99% |     1629881     25.19%     50.18% |     1614021     24.94%     75.12% |     1609792     24.88%    100.00%
system.ruby.L1Cache_Controller.S.allocTBE::total      6471031                      
system.ruby.L1Cache_Controller.S.deallocTBE |         786     26.79%     26.79% |         702     23.93%     50.72% |         789     26.89%     77.61% |         657     22.39%    100.00%
system.ruby.L1Cache_Controller.S.deallocTBE::total         2934                      
system.ruby.L1Cache_Controller.S.externalloadSrespfrom_in |     1617410     24.99%     24.99% |     1630058     25.19%     50.18% |     1614108     24.94%     75.12% |     1610000     24.88%    100.00%
system.ruby.L1Cache_Controller.S.externalloadSrespfrom_in::total      6471576                      
system.ruby.L1Cache_Controller.S_evict.Progress |           0      0.00%      0.00% |           0      0.00%      0.00% |           1    100.00%    100.00% |           0      0.00%    100.00%
system.ruby.L1Cache_Controller.S_evict.Progress::total            1                      
system.ruby.L1Cache_Controller.S_evict.Stallmandatory_in |         581     23.04%     23.04% |         641     25.42%     48.45% |         621     24.62%     73.08% |         679     26.92%    100.00%
system.ruby.L1Cache_Controller.S_evict.Stallmandatory_in::total         2522                      
system.ruby.L1Cache_Controller.S_evict_x_I.Progress |           0      0.00%      0.00% |           0      0.00%      0.00% |           1    100.00%    100.00% |           0      0.00%    100.00%
system.ruby.L1Cache_Controller.S_evict_x_I.Progress::total            1                      
system.ruby.L1Cache_Controller.S_evict_x_I.Stallmandatory_in |           0      0.00%      0.00% |           0      0.00%      0.00% |           3    100.00%    100.00% |           0      0.00%    100.00%
system.ruby.L1Cache_Controller.S_evict_x_I.Stallmandatory_in::total            3                      
system.ruby.L1Cache_Controller.S_store.Progress |       36710     26.27%     26.27% |       33704     24.12%     50.38% |       35151     25.15%     75.54% |       34189     24.46%    100.00%
system.ruby.L1Cache_Controller.S_store.Progress::total       139754                      
system.ruby.L1Cache_Controller.S_store.Stallfwdfrom_in |           0      0.00%      0.00% |           2    100.00%    100.00% |           0      0.00%    100.00% |           0      0.00%    100.00%
system.ruby.L1Cache_Controller.S_store.Stallfwdfrom_in::total            2                      
system.ruby.L1Cache_Controller.SloadSEvent |   112600886     25.04%     25.04% |   112297040     24.97%     50.02% |   112511767     25.02%     75.04% |   112230469     24.96%    100.00%
system.ruby.L1Cache_Controller.SloadSEvent::total    449640162                      
system.ruby.L1Cache_Controller.Stallfwdfrom_in |           7     14.29%     14.29% |          20     40.82%     55.10% |          16     32.65%     87.76% |           6     12.24%    100.00%
system.ruby.L1Cache_Controller.Stallfwdfrom_in::total           49                      
system.ruby.L1Cache_Controller.Stallmandatory_in |        1400     25.08%     25.08% |        1314     23.54%     48.62% |        1404     25.15%     73.77% |        1464     26.23%    100.00%
system.ruby.L1Cache_Controller.Stallmandatory_in::total         5582                      
system.ruby.L1Cache_Controller.allocI_load |     1617410     24.99%     24.99% |     1630058     25.19%     50.18% |     1614108     24.94%     75.12% |     1610000     24.88%    100.00%
system.ruby.L1Cache_Controller.allocI_load::total      6471576                      
system.ruby.L1Cache_Controller.allocI_store |      606671     25.02%     25.02% |      611842     25.24%     50.26% |      600610     24.77%     75.03% |      605310     24.97%    100.00%
system.ruby.L1Cache_Controller.allocI_store::total      2424433                      
system.ruby.L1Cache_Controller.allocTBE  |     2259629     25.02%     25.02% |     2274810     25.19%     50.20% |     2249106     24.90%     75.10% |     2248615     24.90%    100.00%
system.ruby.L1Cache_Controller.allocTBE::total      9032160                      
system.ruby.L1Cache_Controller.deallocTBE |         786     26.79%     26.79% |         702     23.93%     50.72% |         789     26.89%     77.61% |         657     22.39%    100.00%
system.ruby.L1Cache_Controller.deallocTBE::total         2934                      
system.ruby.L1Cache_Controller.deallocfwdfrom_in |     2223060     25.00%     25.00% |     2240905     25.20%     50.20% |     2213714     24.90%     75.10% |     2214294     24.90%    100.00%
system.ruby.L1Cache_Controller.deallocfwdfrom_in::total      8891973                      
system.ruby.L1Cache_Controller.externalloadSrespfrom_in |     1617410     24.99%     24.99% |     1630058     25.19%     50.18% |     1614108     24.94%     75.12% |     1610000     24.88%    100.00%
system.ruby.L1Cache_Controller.externalloadSrespfrom_in::total      6471576                      
system.ruby.L1Cache_Controller.externalstoreMrespfrom_in |      642454     25.08%     25.08% |      645045     25.18%     50.26% |      635213     24.80%     75.06% |      638973     24.94%    100.00%
system.ruby.L1Cache_Controller.externalstoreMrespfrom_in::total      2561685                      
system.ruby.LD.hit_latency_hist_seqr::bucket_size            1                      
system.ruby.LD.hit_latency_hist_seqr::max_bucket            9                      
system.ruby.LD.hit_latency_hist_seqr::samples     84872483                      
system.ruby.LD.hit_latency_hist_seqr     |    84872483    100.00%    100.00% |           0      0.00%    100.00% |           0      0.00%    100.00% |           0      0.00%    100.00% |           0      0.00%    100.00% |           0      0.00%    100.00% |           0      0.00%    100.00% |           0      0.00%    100.00% |           0      0.00%    100.00% |           0      0.00%    100.00%
system.ruby.LD.hit_latency_hist_seqr::total     84872483                      
system.ruby.LD.latency_hist_seqr::bucket_size            1                      
system.ruby.LD.latency_hist_seqr::max_bucket            9                      
system.ruby.LD.latency_hist_seqr::samples     90307473                      
system.ruby.LD.latency_hist_seqr         |    90307473    100.00%    100.00% |           0      0.00%    100.00% |           0      0.00%    100.00% |           0      0.00%    100.00% |           0      0.00%    100.00% |           0      0.00%    100.00% |           0      0.00%    100.00% |           0      0.00%    100.00% |           0      0.00%    100.00% |           0      0.00%    100.00%
system.ruby.LD.latency_hist_seqr::total      90307473                      
system.ruby.LD.miss_latency_hist_seqr::bucket_size            1                      
system.ruby.LD.miss_latency_hist_seqr::max_bucket            9                      
system.ruby.LD.miss_latency_hist_seqr::samples      5434990                      
system.ruby.LD.miss_latency_hist_seqr    |     5434990    100.00%    100.00% |           0      0.00%    100.00% |           0      0.00%    100.00% |           0      0.00%    100.00% |           0      0.00%    100.00% |           0      0.00%    100.00% |           0      0.00%    100.00% |           0      0.00%    100.00% |           0      0.00%    100.00% |           0      0.00%    100.00%
system.ruby.LD.miss_latency_hist_seqr::total      5434990                      
system.ruby.Locked_RMW_Read.hit_latency_hist_seqr::bucket_size            1                      
system.ruby.Locked_RMW_Read.hit_latency_hist_seqr::max_bucket            9                      
system.ruby.Locked_RMW_Read.hit_latency_hist_seqr::samples      2644396                      
system.ruby.Locked_RMW_Read.hit_latency_hist_seqr |     2644396    100.00%    100.00% |           0      0.00%    100.00% |           0      0.00%    100.00% |           0      0.00%    100.00% |           0      0.00%    100.00% |           0      0.00%    100.00% |           0      0.00%    100.00% |           0      0.00%    100.00% |           0      0.00%    100.00% |           0      0.00%    100.00%
system.ruby.Locked_RMW_Read.hit_latency_hist_seqr::total      2644396                      
system.ruby.Locked_RMW_Read.latency_hist_seqr::bucket_size            1                      
system.ruby.Locked_RMW_Read.latency_hist_seqr::max_bucket            9                      
system.ruby.Locked_RMW_Read.latency_hist_seqr::samples      5026046                      
system.ruby.Locked_RMW_Read.latency_hist_seqr |     5026046    100.00%    100.00% |           0      0.00%    100.00% |           0      0.00%    100.00% |           0      0.00%    100.00% |           0      0.00%    100.00% |           0      0.00%    100.00% |           0      0.00%    100.00% |           0      0.00%    100.00% |           0      0.00%    100.00% |           0      0.00%    100.00%
system.ruby.Locked_RMW_Read.latency_hist_seqr::total      5026046                      
system.ruby.Locked_RMW_Read.miss_latency_hist_seqr::bucket_size            1                      
system.ruby.Locked_RMW_Read.miss_latency_hist_seqr::max_bucket            9                      
system.ruby.Locked_RMW_Read.miss_latency_hist_seqr::samples      2381650                      
system.ruby.Locked_RMW_Read.miss_latency_hist_seqr |     2381650    100.00%    100.00% |           0      0.00%    100.00% |           0      0.00%    100.00% |           0      0.00%    100.00% |           0      0.00%    100.00% |           0      0.00%    100.00% |           0      0.00%    100.00% |           0      0.00%    100.00% |           0      0.00%    100.00% |           0      0.00%    100.00%
system.ruby.Locked_RMW_Read.miss_latency_hist_seqr::total      2381650                      
system.ruby.Locked_RMW_Write.hit_latency_hist_seqr::bucket_size            1                      
system.ruby.Locked_RMW_Write.hit_latency_hist_seqr::max_bucket            9                      
system.ruby.Locked_RMW_Write.hit_latency_hist_seqr::samples      5026046                      
system.ruby.Locked_RMW_Write.hit_latency_hist_seqr |     5026046    100.00%    100.00% |           0      0.00%    100.00% |           0      0.00%    100.00% |           0      0.00%    100.00% |           0      0.00%    100.00% |           0      0.00%    100.00% |           0      0.00%    100.00% |           0      0.00%    100.00% |           0      0.00%    100.00% |           0      0.00%    100.00%
system.ruby.Locked_RMW_Write.hit_latency_hist_seqr::total      5026046                      
system.ruby.Locked_RMW_Write.latency_hist_seqr::bucket_size            1                      
system.ruby.Locked_RMW_Write.latency_hist_seqr::max_bucket            9                      
system.ruby.Locked_RMW_Write.latency_hist_seqr::samples      5026046                      
system.ruby.Locked_RMW_Write.latency_hist_seqr |     5026046    100.00%    100.00% |           0      0.00%    100.00% |           0      0.00%    100.00% |           0      0.00%    100.00% |           0      0.00%    100.00% |           0      0.00%    100.00% |           0      0.00%    100.00% |           0      0.00%    100.00% |           0      0.00%    100.00% |           0      0.00%    100.00%
system.ruby.Locked_RMW_Write.latency_hist_seqr::total      5026046                      
system.ruby.RMW_Read.hit_latency_hist_seqr::bucket_size            1                      
system.ruby.RMW_Read.hit_latency_hist_seqr::max_bucket            9                      
system.ruby.RMW_Read.hit_latency_hist_seqr::samples       126207                      
system.ruby.RMW_Read.hit_latency_hist_seqr |      126207    100.00%    100.00% |           0      0.00%    100.00% |           0      0.00%    100.00% |           0      0.00%    100.00% |           0      0.00%    100.00% |           0      0.00%    100.00% |           0      0.00%    100.00% |           0      0.00%    100.00% |           0      0.00%    100.00% |           0      0.00%    100.00%
system.ruby.RMW_Read.hit_latency_hist_seqr::total       126207                      
system.ruby.RMW_Read.latency_hist_seqr::bucket_size            1                      
system.ruby.RMW_Read.latency_hist_seqr::max_bucket            9                      
system.ruby.RMW_Read.latency_hist_seqr::samples       141263                      
system.ruby.RMW_Read.latency_hist_seqr   |      141263    100.00%    100.00% |           0      0.00%    100.00% |           0      0.00%    100.00% |           0      0.00%    100.00% |           0      0.00%    100.00% |           0      0.00%    100.00% |           0      0.00%    100.00% |           0      0.00%    100.00% |           0      0.00%    100.00% |           0      0.00%    100.00%
system.ruby.RMW_Read.latency_hist_seqr::total       141263                      
system.ruby.RMW_Read.miss_latency_hist_seqr::bucket_size            1                      
system.ruby.RMW_Read.miss_latency_hist_seqr::max_bucket            9                      
system.ruby.RMW_Read.miss_latency_hist_seqr::samples        15056                      
system.ruby.RMW_Read.miss_latency_hist_seqr |       15056    100.00%    100.00% |           0      0.00%    100.00% |           0      0.00%    100.00% |           0      0.00%    100.00% |           0      0.00%    100.00% |           0      0.00%    100.00% |           0      0.00%    100.00% |           0      0.00%    100.00% |           0      0.00%    100.00% |           0      0.00%    100.00%
system.ruby.RMW_Read.miss_latency_hist_seqr::total        15056                      
system.ruby.ST.hit_latency_hist_seqr::bucket_size            1                      
system.ruby.ST.hit_latency_hist_seqr::max_bucket            9                      
system.ruby.ST.hit_latency_hist_seqr::samples     18488288                      
system.ruby.ST.hit_latency_hist_seqr     |    18488288    100.00%    100.00% |           0      0.00%    100.00% |           0      0.00%    100.00% |           0      0.00%    100.00% |           0      0.00%    100.00% |           0      0.00%    100.00% |           0      0.00%    100.00% |           0      0.00%    100.00% |           0      0.00%    100.00% |           0      0.00%    100.00%
system.ruby.ST.hit_latency_hist_seqr::total     18488288                      
system.ruby.ST.latency_hist_seqr::bucket_size            1                      
system.ruby.ST.latency_hist_seqr::max_bucket            9                      
system.ruby.ST.latency_hist_seqr::samples     18653267                      
system.ruby.ST.latency_hist_seqr         |    18653267    100.00%    100.00% |           0      0.00%    100.00% |           0      0.00%    100.00% |           0      0.00%    100.00% |           0      0.00%    100.00% |           0      0.00%    100.00% |           0      0.00%    100.00% |           0      0.00%    100.00% |           0      0.00%    100.00% |           0      0.00%    100.00%
system.ruby.ST.latency_hist_seqr::total      18653267                      
system.ruby.ST.miss_latency_hist_seqr::bucket_size            1                      
system.ruby.ST.miss_latency_hist_seqr::max_bucket            9                      
system.ruby.ST.miss_latency_hist_seqr::samples       164979                      
system.ruby.ST.miss_latency_hist_seqr    |      164979    100.00%    100.00% |           0      0.00%    100.00% |           0      0.00%    100.00% |           0      0.00%    100.00% |           0      0.00%    100.00% |           0      0.00%    100.00% |           0      0.00%    100.00% |           0      0.00%    100.00% |           0      0.00%    100.00% |           0      0.00%    100.00%
system.ruby.ST.miss_latency_hist_seqr::total       164979                      
system.ruby.dir_cntrl0.fwdFrom.avg_buf_msgs     0.026501                       # Average number of messages in buffer
system.ruby.dir_cntrl0.fwdFrom.avg_stall_time  2999.960817                       # Average number of cycles messages are stalled in this MB
system.ruby.dir_cntrl0.reqTo.avg_buf_msgs     0.009110                       # Average number of messages in buffer
system.ruby.dir_cntrl0.reqTo.avg_stall_time  5237.102330                       # Average number of cycles messages are stalled in this MB
system.ruby.dir_cntrl0.requestToMemory.avg_buf_msgs     0.005671                       # Average number of messages in buffer
system.ruby.dir_cntrl0.requestToMemory.avg_stall_time   499.999991                       # Average number of cycles messages are stalled in this MB
system.ruby.dir_cntrl0.respFrom.avg_buf_msgs     0.026844                       # Average number of messages in buffer
system.ruby.dir_cntrl0.respFrom.avg_stall_time  3000.630352                       # Average number of cycles messages are stalled in this MB
system.ruby.dir_cntrl0.respTo.avg_buf_msgs     0.000012                       # Average number of messages in buffer
system.ruby.dir_cntrl0.respTo.avg_stall_time  5000.880371                       # Average number of cycles messages are stalled in this MB
system.ruby.dir_cntrl0.responseFromMemory.avg_buf_msgs     0.005694                       # Average number of messages in buffer
system.ruby.dir_cntrl0.responseFromMemory.avg_stall_time   499.999833                       # Average number of cycles messages are stalled in this MB
system.ruby.dir_cntrl1.fwdFrom.avg_buf_msgs     0.024560                       # Average number of messages in buffer
system.ruby.dir_cntrl1.fwdFrom.avg_stall_time  2999.865266                       # Average number of cycles messages are stalled in this MB
system.ruby.dir_cntrl1.reqTo.avg_buf_msgs     0.008300                       # Average number of messages in buffer
system.ruby.dir_cntrl1.reqTo.avg_stall_time  5348.267869                       # Average number of cycles messages are stalled in this MB
system.ruby.dir_cntrl1.requestToMemory.avg_buf_msgs     0.005364                       # Average number of messages in buffer
system.ruby.dir_cntrl1.requestToMemory.avg_stall_time   499.999791                       # Average number of cycles messages are stalled in this MB
system.ruby.dir_cntrl1.respFrom.avg_buf_msgs     0.024924                       # Average number of messages in buffer
system.ruby.dir_cntrl1.respFrom.avg_stall_time  3000.910443                       # Average number of cycles messages are stalled in this MB
system.ruby.dir_cntrl1.respTo.avg_buf_msgs     0.000012                       # Average number of messages in buffer
system.ruby.dir_cntrl1.respTo.avg_stall_time  4951.771564                       # Average number of cycles messages are stalled in this MB
system.ruby.dir_cntrl1.responseFromMemory.avg_buf_msgs     0.005384                       # Average number of messages in buffer
system.ruby.dir_cntrl1.responseFromMemory.avg_stall_time   499.999632                       # Average number of cycles messages are stalled in this MB
system.ruby.dir_cntrl2.fwdFrom.avg_buf_msgs     0.026090                       # Average number of messages in buffer
system.ruby.dir_cntrl2.fwdFrom.avg_stall_time  2999.973335                       # Average number of cycles messages are stalled in this MB
system.ruby.dir_cntrl2.reqTo.avg_buf_msgs     0.009093                       # Average number of messages in buffer
system.ruby.dir_cntrl2.reqTo.avg_stall_time  5286.544932                       # Average number of cycles messages are stalled in this MB
system.ruby.dir_cntrl2.requestToMemory.avg_buf_msgs     0.005604                       # Average number of messages in buffer
system.ruby.dir_cntrl2.requestToMemory.avg_stall_time   499.999301                       # Average number of cycles messages are stalled in this MB
system.ruby.dir_cntrl2.respFrom.avg_buf_msgs     0.026489                       # Average number of messages in buffer
system.ruby.dir_cntrl2.respFrom.avg_stall_time  3002.212305                       # Average number of cycles messages are stalled in this MB
system.ruby.dir_cntrl2.respTo.avg_buf_msgs     0.000013                       # Average number of messages in buffer
system.ruby.dir_cntrl2.respTo.avg_stall_time  5053.922504                       # Average number of cycles messages are stalled in this MB
system.ruby.dir_cntrl2.responseFromMemory.avg_buf_msgs     0.005626                       # Average number of messages in buffer
system.ruby.dir_cntrl2.responseFromMemory.avg_stall_time   499.999142                       # Average number of cycles messages are stalled in this MB
system.ruby.dir_cntrl3.fwdFrom.avg_buf_msgs     0.023863                       # Average number of messages in buffer
system.ruby.dir_cntrl3.fwdFrom.avg_stall_time  2999.941861                       # Average number of cycles messages are stalled in this MB
system.ruby.dir_cntrl3.reqTo.avg_buf_msgs     0.008061                       # Average number of messages in buffer
system.ruby.dir_cntrl3.reqTo.avg_stall_time  5368.015871                       # Average number of cycles messages are stalled in this MB
system.ruby.dir_cntrl3.requestToMemory.avg_buf_msgs     0.005230                       # Average number of messages in buffer
system.ruby.dir_cntrl3.requestToMemory.avg_stall_time   499.999990                       # Average number of cycles messages are stalled in this MB
system.ruby.dir_cntrl3.respFrom.avg_buf_msgs     0.024257                       # Average number of messages in buffer
system.ruby.dir_cntrl3.respFrom.avg_stall_time  3001.680950                       # Average number of cycles messages are stalled in this MB
system.ruby.dir_cntrl3.respTo.avg_buf_msgs     0.000012                       # Average number of messages in buffer
system.ruby.dir_cntrl3.respTo.avg_stall_time  4823.578343                       # Average number of cycles messages are stalled in this MB
system.ruby.dir_cntrl3.responseFromMemory.avg_buf_msgs     0.005250                       # Average number of messages in buffer
system.ruby.dir_cntrl3.responseFromMemory.avg_stall_time   499.999831                       # Average number of cycles messages are stalled in this MB
system.ruby.dma_cntrl0.cache.demand_accesses            0                       # Number of cache demand accesses
system.ruby.dma_cntrl0.cache.demand_hits            0                       # Number of cache demand hits
system.ruby.dma_cntrl0.cache.demand_misses            0                       # Number of cache demand misses
system.ruby.dma_cntrl0.fully_busy_cycles         2961                       # cycles for which number of transistions == max transitions
system.ruby.dma_cntrl0.fwdFrom.avg_buf_msgs     0.000002                       # Average number of messages in buffer
system.ruby.dma_cntrl0.fwdFrom.avg_stall_time  3029.457883                       # Average number of cycles messages are stalled in this MB
system.ruby.dma_cntrl0.mandatoryQueue.avg_buf_msgs     0.000380                       # Average number of messages in buffer
system.ruby.dma_cntrl0.mandatoryQueue.avg_stall_time 87964.799981                       # Average number of cycles messages are stalled in this MB
system.ruby.dma_cntrl0.reqTo.avg_buf_msgs     0.000608                       # Average number of messages in buffer
system.ruby.dma_cntrl0.reqTo.avg_stall_time  8340.839989                       # Average number of cycles messages are stalled in this MB
system.ruby.dma_cntrl0.respFrom.avg_buf_msgs     0.000004                       # Average number of messages in buffer
system.ruby.dma_cntrl0.respFrom.avg_stall_time 53007.125725                       # Average number of cycles messages are stalled in this MB
system.ruby.dma_cntrl0.respTo.avg_buf_msgs     0.000000                       # Average number of messages in buffer
system.ruby.dma_cntrl0.respTo.avg_stall_time   537.728979                       # Average number of cycles messages are stalled in this MB
system.ruby.hit_latency_hist_seqr::bucket_size            1                      
system.ruby.hit_latency_hist_seqr::max_bucket            9                      
system.ruby.hit_latency_hist_seqr::samples    497068848                      
system.ruby.hit_latency_hist_seqr        |   497068848    100.00%    100.00% |           0      0.00%    100.00% |           0      0.00%    100.00% |           0      0.00%    100.00% |           0      0.00%    100.00% |           0      0.00%    100.00% |           0      0.00%    100.00% |           0      0.00%    100.00% |           0      0.00%    100.00% |           0      0.00%    100.00%
system.ruby.hit_latency_hist_seqr::total    497068848                      
system.ruby.io_controller.cache.demand_accesses            0                       # Number of cache demand accesses
system.ruby.io_controller.cache.demand_hits            0                       # Number of cache demand hits
system.ruby.io_controller.cache.demand_misses            0                       # Number of cache demand misses
system.ruby.l1_cntrl0.cache.demand_accesses            0                       # Number of cache demand accesses
system.ruby.l1_cntrl0.cache.demand_hits             0                       # Number of cache demand hits
system.ruby.l1_cntrl0.cache.demand_misses            0                       # Number of cache demand misses
system.ruby.l1_cntrl0.fwdFrom.avg_buf_msgs     1.278425                       # Average number of messages in buffer
system.ruby.l1_cntrl0.fwdFrom.avg_stall_time  6452.011694                       # Average number of cycles messages are stalled in this MB
system.ruby.l1_cntrl0.mandatoryQueue.avg_buf_msgs     0.360944                       # Average number of messages in buffer
system.ruby.l1_cntrl0.mandatoryQueue.avg_stall_time  6066.393672                       # Average number of cycles messages are stalled in this MB
system.ruby.l1_cntrl0.reqTo.avg_buf_msgs     0.008474                       # Average number of messages in buffer
system.ruby.l1_cntrl0.reqTo.avg_stall_time   499.999997                       # Average number of cycles messages are stalled in this MB
system.ruby.l1_cntrl0.respFrom.avg_buf_msgs     0.004281                       # Average number of messages in buffer
system.ruby.l1_cntrl0.respFrom.avg_stall_time 16490.335229                       # Average number of cycles messages are stalled in this MB
system.ruby.l1_cntrl0.respTo.avg_buf_msgs     0.000035                       # Average number of messages in buffer
system.ruby.l1_cntrl0.respTo.avg_stall_time   999.187000                       # Average number of cycles messages are stalled in this MB
system.ruby.l1_cntrl1.cache.demand_accesses            0                       # Number of cache demand accesses
system.ruby.l1_cntrl1.cache.demand_hits             0                       # Number of cache demand hits
system.ruby.l1_cntrl1.cache.demand_misses            0                       # Number of cache demand misses
system.ruby.l1_cntrl1.fully_busy_cycles             1                       # cycles for which number of transistions == max transitions
system.ruby.l1_cntrl1.fwdFrom.avg_buf_msgs     0.889078                       # Average number of messages in buffer
system.ruby.l1_cntrl1.fwdFrom.avg_stall_time  6519.835185                       # Average number of cycles messages are stalled in this MB
system.ruby.l1_cntrl1.mandatoryQueue.avg_buf_msgs     0.361492                       # Average number of messages in buffer
system.ruby.l1_cntrl1.mandatoryQueue.avg_stall_time  6136.019128                       # Average number of cycles messages are stalled in this MB
system.ruby.l1_cntrl1.reqTo.avg_buf_msgs     0.008536                       # Average number of messages in buffer
system.ruby.l1_cntrl1.reqTo.avg_stall_time   499.999997                       # Average number of cycles messages are stalled in this MB
system.ruby.l1_cntrl1.respFrom.avg_buf_msgs     0.004307                       # Average number of messages in buffer
system.ruby.l1_cntrl1.respFrom.avg_stall_time 16558.801737                       # Average number of cycles messages are stalled in this MB
system.ruby.l1_cntrl1.respTo.avg_buf_msgs     0.000037                       # Average number of messages in buffer
system.ruby.l1_cntrl1.respTo.avg_stall_time   999.967820                       # Average number of cycles messages are stalled in this MB
system.ruby.l1_cntrl2.cache.demand_accesses            0                       # Number of cache demand accesses
system.ruby.l1_cntrl2.cache.demand_hits             0                       # Number of cache demand hits
system.ruby.l1_cntrl2.cache.demand_misses            0                       # Number of cache demand misses
system.ruby.l1_cntrl2.fully_busy_cycles             2                       # cycles for which number of transistions == max transitions
system.ruby.l1_cntrl2.fwdFrom.avg_buf_msgs     0.012916                       # Average number of messages in buffer
system.ruby.l1_cntrl2.fwdFrom.avg_stall_time  6486.071673                       # Average number of cycles messages are stalled in this MB
system.ruby.l1_cntrl2.mandatoryQueue.avg_buf_msgs     0.359959                       # Average number of messages in buffer
system.ruby.l1_cntrl2.mandatoryQueue.avg_stall_time  6060.419655                       # Average number of cycles messages are stalled in this MB
system.ruby.l1_cntrl2.reqTo.avg_buf_msgs     0.008436                       # Average number of messages in buffer
system.ruby.l1_cntrl2.reqTo.avg_stall_time   499.999997                       # Average number of cycles messages are stalled in this MB
system.ruby.l1_cntrl2.respFrom.avg_buf_msgs     0.004258                       # Average number of messages in buffer
system.ruby.l1_cntrl2.respFrom.avg_stall_time 16460.959938                       # Average number of cycles messages are stalled in this MB
system.ruby.l1_cntrl2.respTo.avg_buf_msgs     0.000037                       # Average number of messages in buffer
system.ruby.l1_cntrl2.respTo.avg_stall_time   999.974359                       # Average number of cycles messages are stalled in this MB
system.ruby.l1_cntrl3.cache.demand_accesses            0                       # Number of cache demand accesses
system.ruby.l1_cntrl3.cache.demand_hits             0                       # Number of cache demand hits
system.ruby.l1_cntrl3.cache.demand_misses            0                       # Number of cache demand misses
system.ruby.l1_cntrl3.fwdFrom.avg_buf_msgs     0.004192                       # Average number of messages in buffer
system.ruby.l1_cntrl3.fwdFrom.avg_stall_time  6550.588178                       # Average number of cycles messages are stalled in this MB
system.ruby.l1_cntrl3.mandatoryQueue.avg_buf_msgs     0.360172                       # Average number of messages in buffer
system.ruby.l1_cntrl3.mandatoryQueue.avg_stall_time  6088.894085                       # Average number of cycles messages are stalled in this MB
system.ruby.l1_cntrl3.reqTo.avg_buf_msgs     0.008435                       # Average number of messages in buffer
system.ruby.l1_cntrl3.reqTo.avg_stall_time   499.999997                       # Average number of cycles messages are stalled in this MB
system.ruby.l1_cntrl3.respFrom.avg_buf_msgs     0.004258                       # Average number of messages in buffer
system.ruby.l1_cntrl3.respFrom.avg_stall_time 16542.256009                       # Average number of cycles messages are stalled in this MB
system.ruby.l1_cntrl3.respTo.avg_buf_msgs     0.000041                       # Average number of messages in buffer
system.ruby.l1_cntrl3.respTo.avg_stall_time   999.760711                       # Average number of cycles messages are stalled in this MB
system.ruby.latency_hist_seqr::bucket_size            1                      
system.ruby.latency_hist_seqr::max_bucket            9                      
system.ruby.latency_hist_seqr::samples      506102109                      
system.ruby.latency_hist_seqr            |   506102109    100.00%    100.00% |           0      0.00%    100.00% |           0      0.00%    100.00% |           0      0.00%    100.00% |           0      0.00%    100.00% |           0      0.00%    100.00% |           0      0.00%    100.00% |           0      0.00%    100.00% |           0      0.00%    100.00% |           0      0.00%    100.00%
system.ruby.latency_hist_seqr::total        506102109                      
system.ruby.miss_latency_hist_seqr::bucket_size            1                      
system.ruby.miss_latency_hist_seqr::max_bucket            9                      
system.ruby.miss_latency_hist_seqr::samples      9033261                      
system.ruby.miss_latency_hist_seqr       |     9033261    100.00%    100.00% |           0      0.00%    100.00% |           0      0.00%    100.00% |           0      0.00%    100.00% |           0      0.00%    100.00% |           0      0.00%    100.00% |           0      0.00%    100.00% |           0      0.00%    100.00% |           0      0.00%    100.00% |           0      0.00%    100.00%
system.ruby.miss_latency_hist_seqr::total      9033261                      
system.ruby.network.average_flit_latency    16.363630                      
system.ruby.network.average_flit_network_latency    12.063850                      
system.ruby.network.average_flit_queueing_latency     4.299779                      
system.ruby.network.average_flit_vnet_latency |   15.025128                       |    4.998936                       |    9.531996                      
system.ruby.network.average_flit_vqueue_latency |    5.993589                       |    6.000003                       |    1.031702                      
system.ruby.network.average_hops             0.998539                      
system.ruby.network.average_packet_latency    14.980394                      
system.ruby.network.average_packet_network_latency    11.471724                      
system.ruby.network.average_packet_queueing_latency     3.508670                      
system.ruby.network.average_packet_vnet_latency |   24.991785                       |    4.998936                       |    7.842275                      
system.ruby.network.average_packet_vqueue_latency |    5.983604                       |    6.000003                       |    1.017764                      
system.ruby.network.avg_link_utilization     0.466365                      
system.ruby.network.avg_vc_load          |    0.191375     41.04%     41.04% |    0.022474      4.82%     45.85% |    0.021442      4.60%     50.45% |    0.021367      4.58%     55.03% |    0.037820      8.11%     63.14% |    0.004240      0.91%     64.05% |    0.004209      0.90%     64.95% |    0.004209      0.90%     65.86% |    0.116962     25.08%     90.94% |    0.015673      3.36%     94.30% |    0.013327      2.86%     97.16% |    0.013267      2.84%    100.00%
system.ruby.network.avg_vc_load::total       0.466365                      
system.ruby.network.ext_in_link_utilization     82179154                      
system.ruby.network.ext_out_link_utilization     82179154                      
system.ruby.network.flit_network_latency |   679415637                       |    44470667                       |   267510711                      
system.ruby.network.flit_queueing_latency |   271021847                       |    53376188                       |    28954200                      
system.ruby.network.flits_injected       |    45218626     55.02%     55.02% |     8896027     10.83%     65.85% |    28064502     34.15%    100.00%
system.ruby.network.flits_injected::total     82179155                      
system.ruby.network.flits_received       |    45218626     55.02%     55.02% |     8896027     10.83%     65.85% |    28064500     34.15%    100.00%
system.ruby.network.flits_received::total     82179153                      
system.ruby.network.int_link_utilization     82059059                      
system.ruby.network.packet_network_latency |   226565480                       |    44470667                       |   140416059                      
system.ruby.network.packet_queueing_latency |    54244947                       |    53376188                       |    18223077                      
system.ruby.network.packets_injected     |     9065598     25.28%     25.28% |     8896027     24.80%     50.08% |    17905018     49.92%    100.00%
system.ruby.network.packets_injected::total     35866643                      
system.ruby.network.packets_received     |     9065598     25.28%     25.28% |     8896027     24.80%     50.08% |    17905017     49.92%    100.00%
system.ruby.network.packets_received::total     35866642                      
system.ruby.network.routers0.buffer_reads     41666345                      
system.ruby.network.routers0.buffer_writes     41666345                      
system.ruby.network.routers0.crossbar_activity     41666345                      
system.ruby.network.routers0.sw_input_arbiter_activity     41775790                      
system.ruby.network.routers0.sw_output_arbiter_activity     41666345                      
system.ruby.network.routers1.buffer_reads     40898175                      
system.ruby.network.routers1.buffer_writes     40898175                      
system.ruby.network.routers1.crossbar_activity     40898175                      
system.ruby.network.routers1.sw_input_arbiter_activity     40997108                      
system.ruby.network.routers1.sw_output_arbiter_activity     40898175                      
system.ruby.network.routers2.buffer_reads     41308472                      
system.ruby.network.routers2.buffer_writes     41308472                      
system.ruby.network.routers2.crossbar_activity     41308472                      
system.ruby.network.routers2.sw_input_arbiter_activity     41412017                      
system.ruby.network.routers2.sw_output_arbiter_activity     41308472                      
system.ruby.network.routers3.buffer_reads     40365221                      
system.ruby.network.routers3.buffer_writes     40365221                      
system.ruby.network.routers3.crossbar_activity     40365221                      
system.ruby.network.routers3.sw_input_arbiter_activity     40461952                      
system.ruby.network.routers3.sw_output_arbiter_activity     40365221                      
system.ruby.outstanding_req_hist_seqr::bucket_size            1                      
system.ruby.outstanding_req_hist_seqr::max_bucket            9                      
system.ruby.outstanding_req_hist_seqr::samples    506102111                      
system.ruby.outstanding_req_hist_seqr::mean     1.000000                      
system.ruby.outstanding_req_hist_seqr::gmean     1.000000                      
system.ruby.outstanding_req_hist_seqr::stdev     0.000172                      
system.ruby.outstanding_req_hist_seqr    |           0      0.00%      0.00% |   506102096    100.00%    100.00% |          15      0.00%    100.00% |           0      0.00%    100.00% |           0      0.00%    100.00% |           0      0.00%    100.00% |           0      0.00%    100.00% |           0      0.00%    100.00% |           0      0.00%    100.00% |           0      0.00%    100.00%
system.ruby.outstanding_req_hist_seqr::total    506102111                      
system.switch_cpus0.Branches                  5967613                       # Number of branches fetched
system.switch_cpus0.committedInsts           68936919                       # Number of instructions committed
system.switch_cpus0.committedOps            119879614                       # Number of ops (including micro ops) committed
system.switch_cpus0.dtb.rdAccesses           20399835                       # TLB accesses on read requests
system.switch_cpus0.dtb.rdMisses              1177817                       # TLB misses on read requests
system.switch_cpus0.dtb.wrAccesses            5999487                       # TLB accesses on write requests
system.switch_cpus0.dtb.wrMisses                 1173                       # TLB misses on write requests
system.switch_cpus0.idle_fraction            0.014316                       # Percentage of idle cycles
system.switch_cpus0.itb.rdAccesses                  0                       # TLB accesses on read requests
system.switch_cpus0.itb.rdMisses                    0                       # TLB misses on read requests
system.switch_cpus0.itb.wrAccesses           96922093                       # TLB accesses on write requests
system.switch_cpus0.itb.wrMisses                 3134                       # TLB misses on write requests
system.switch_cpus0.kern.inst.arm                   0                       # number of arm instructions executed
system.switch_cpus0.kern.inst.quiesce               0                       # number of quiesce instructions executed
system.switch_cpus0.not_idle_fraction        0.985684                       # Percentage of non-idle cycles
system.switch_cpus0.numCycles               528378807                       # number of cpu cycles simulated
system.switch_cpus0.numWorkItemsCompleted            0                       # number of work items this cpu completed
system.switch_cpus0.numWorkItemsStarted             0                       # number of work items this cpu started
system.switch_cpus0.num_busy_cycles      520814707.435819                       # Number of busy cycles
system.switch_cpus0.num_cc_register_reads     41839113                       # number of times the CC registers were read
system.switch_cpus0.num_cc_register_writes     38045145                       # number of times the CC registers were written
system.switch_cpus0.num_conditional_control_insts      4390645                       # number of instructions that are conditional controls
system.switch_cpus0.num_fp_alu_accesses      39488212                       # Number of float alu accesses
system.switch_cpus0.num_fp_insts             39488212                       # number of float instructions
system.switch_cpus0.num_fp_register_reads     72472472                       # number of times the floating registers were read
system.switch_cpus0.num_fp_register_writes     38247406                       # number of times the floating registers were written
system.switch_cpus0.num_func_calls            1198077                       # number of times a function call or return occured
system.switch_cpus0.num_idle_cycles      7564099.564181                       # Number of idle cycles
system.switch_cpus0.num_int_alu_accesses     85141612                       # Number of integer alu accesses
system.switch_cpus0.num_int_insts            85141612                       # number of integer instructions
system.switch_cpus0.num_int_register_reads    179613549                       # number of times the integer registers were read
system.switch_cpus0.num_int_register_writes     66480336                       # number of times the integer registers were written
system.switch_cpus0.num_load_insts           19222013                       # Number of load instructions
system.switch_cpus0.num_mem_refs             25220368                       # number of memory refs
system.switch_cpus0.num_store_insts           5998355                       # Number of store instructions
system.switch_cpus0.num_vec_alu_accesses            0                       # Number of vector alu accesses
system.switch_cpus0.num_vec_insts                   0                       # number of vector instructions
system.switch_cpus0.num_vec_register_reads            0                       # number of times the vector registers were read
system.switch_cpus0.num_vec_register_writes            0                       # number of times the vector registers were written
system.switch_cpus0.op_class::No_OpClass       400263      0.33%      0.33% # Class of executed instruction
system.switch_cpus0.op_class::IntAlu         59780866     49.87%     50.20% # Class of executed instruction
system.switch_cpus0.op_class::IntMult            9101      0.01%     50.21% # Class of executed instruction
system.switch_cpus0.op_class::IntDiv            18170      0.02%     50.22% # Class of executed instruction
system.switch_cpus0.op_class::FloatAdd         869936      0.73%     50.95% # Class of executed instruction
system.switch_cpus0.op_class::FloatCmp              0      0.00%     50.95% # Class of executed instruction
system.switch_cpus0.op_class::FloatCvt            672      0.00%     50.95% # Class of executed instruction
system.switch_cpus0.op_class::FloatMult             0      0.00%     50.95% # Class of executed instruction
system.switch_cpus0.op_class::FloatMultAcc            0      0.00%     50.95% # Class of executed instruction
system.switch_cpus0.op_class::FloatDiv              0      0.00%     50.95% # Class of executed instruction
system.switch_cpus0.op_class::FloatMisc             0      0.00%     50.95% # Class of executed instruction
system.switch_cpus0.op_class::FloatSqrt             0      0.00%     50.95% # Class of executed instruction
system.switch_cpus0.op_class::SimdAdd          202720      0.17%     51.12% # Class of executed instruction
system.switch_cpus0.op_class::SimdAddAcc            0      0.00%     51.12% # Class of executed instruction
system.switch_cpus0.op_class::SimdAlu        18910850     15.77%     66.89% # Class of executed instruction
system.switch_cpus0.op_class::SimdCmp               0      0.00%     66.89% # Class of executed instruction
system.switch_cpus0.op_class::SimdCvt             456      0.00%     66.89% # Class of executed instruction
system.switch_cpus0.op_class::SimdMisc        4368567      3.64%     70.54% # Class of executed instruction
system.switch_cpus0.op_class::SimdMult              0      0.00%     70.54% # Class of executed instruction
system.switch_cpus0.op_class::SimdMultAcc            0      0.00%     70.54% # Class of executed instruction
system.switch_cpus0.op_class::SimdShift        203062      0.17%     70.71% # Class of executed instruction
system.switch_cpus0.op_class::SimdShiftAcc            0      0.00%     70.71% # Class of executed instruction
system.switch_cpus0.op_class::SimdDiv               0      0.00%     70.71% # Class of executed instruction
system.switch_cpus0.op_class::SimdSqrt              0      0.00%     70.71% # Class of executed instruction
system.switch_cpus0.op_class::SimdFloatAdd      4806181      4.01%     74.72% # Class of executed instruction
system.switch_cpus0.op_class::SimdFloatAlu            0      0.00%     74.72% # Class of executed instruction
system.switch_cpus0.op_class::SimdFloatCmp            0      0.00%     74.72% # Class of executed instruction
system.switch_cpus0.op_class::SimdFloatCvt      4453031      3.71%     78.43% # Class of executed instruction
system.switch_cpus0.op_class::SimdFloatDiv        71366      0.06%     78.49% # Class of executed instruction
system.switch_cpus0.op_class::SimdFloatMisc            0      0.00%     78.49% # Class of executed instruction
system.switch_cpus0.op_class::SimdFloatMult       564017      0.47%     78.96% # Class of executed instruction
system.switch_cpus0.op_class::SimdFloatMultAcc            0      0.00%     78.96% # Class of executed instruction
system.switch_cpus0.op_class::SimdFloatSqrt            0      0.00%     78.96% # Class of executed instruction
system.switch_cpus0.op_class::SimdReduceAdd            0      0.00%     78.96% # Class of executed instruction
system.switch_cpus0.op_class::SimdReduceAlu            0      0.00%     78.96% # Class of executed instruction
system.switch_cpus0.op_class::SimdReduceCmp            0      0.00%     78.96% # Class of executed instruction
system.switch_cpus0.op_class::SimdFloatReduceAdd            0      0.00%     78.96% # Class of executed instruction
system.switch_cpus0.op_class::SimdFloatReduceCmp            0      0.00%     78.96% # Class of executed instruction
system.switch_cpus0.op_class::SimdAes               0      0.00%     78.96% # Class of executed instruction
system.switch_cpus0.op_class::SimdAesMix            0      0.00%     78.96% # Class of executed instruction
system.switch_cpus0.op_class::SimdSha1Hash            0      0.00%     78.96% # Class of executed instruction
system.switch_cpus0.op_class::SimdSha1Hash2            0      0.00%     78.96% # Class of executed instruction
system.switch_cpus0.op_class::SimdSha256Hash            0      0.00%     78.96% # Class of executed instruction
system.switch_cpus0.op_class::SimdSha256Hash2            0      0.00%     78.96% # Class of executed instruction
system.switch_cpus0.op_class::SimdShaSigma2            0      0.00%     78.96% # Class of executed instruction
system.switch_cpus0.op_class::SimdShaSigma3            0      0.00%     78.96% # Class of executed instruction
system.switch_cpus0.op_class::SimdPredAlu            0      0.00%     78.96% # Class of executed instruction
system.switch_cpus0.op_class::MemRead        16482616     13.75%     92.71% # Class of executed instruction
system.switch_cpus0.op_class::MemWrite        5437150      4.54%     97.25% # Class of executed instruction
system.switch_cpus0.op_class::FloatMemRead      2739397      2.29%     99.53% # Class of executed instruction
system.switch_cpus0.op_class::FloatMemWrite       561205      0.47%    100.00% # Class of executed instruction
system.switch_cpus0.op_class::IprAccess             0      0.00%    100.00% # Class of executed instruction
system.switch_cpus0.op_class::InstPrefetch            0      0.00%    100.00% # Class of executed instruction
[...]
system.mem_ctrls1.llc.tags.warmup_cycle  101546849646500                       # Cycle when the warmup percentage was hit.
system.mem_ctrls1.llc.tags.occ_blocks::.ruby.dir_cntrl1 86107.719731                       # Average occupied blocks per requestor
system.mem_ctrls1.llc.tags.occ_percent::.ruby.dir_cntrl1     0.328475                       # Average percentage of cache occupancy
system.mem_ctrls1.llc.tags.occ_percent::total     0.328475                       # Average percentage of cache occupancy
system.mem_ctrls1.llc.tags.occ_task_id_blocks::1024       115567                       # Occupied blocks per task id
system.mem_ctrls1.llc.tags.age_task_id_blocks_1024::0           12                       # Occupied blocks per task id
system.mem_ctrls1.llc.tags.age_task_id_blocks_1024::1           78                       # Occupied blocks per task id
system.mem_ctrls1.llc.tags.age_task_id_blocks_1024::2          124                       # Occupied blocks per task id
system.mem_ctrls1.llc.tags.age_task_id_blocks_1024::3          813                       # Occupied blocks per task id
system.mem_ctrls1.llc.tags.age_task_id_blocks_1024::4       114540                       # Occupied blocks per task id
system.mem_ctrls1.llc.tags.occ_task_id_percent::1024     0.440853                       # Percentage of cache occupancy per task id
system.mem_ctrls1.llc.tags.tag_accesses      45463967                       # Number of tag accesses
system.mem_ctrls1.llc.tags.data_accesses      2834275                       # Number of data accesses
system.mem_ctrls1.llc.tags.power_state.pwrStateResidencyTicks::UNDEFINED 101811038996501                       # Cumulative time (in ticks) in various power states
system.mem_ctrls1.rank1.actEnergy           402317580                       # Energy for activate commands per rank (pJ)
system.mem_ctrls1.rank1.preEnergy           213836865                       # Energy for precharge commands per rank (pJ)
system.mem_ctrls1.rank1.readEnergy          411928020                       # Energy for read commands per rank (pJ)
system.mem_ctrls1.rank1.writeEnergy                 0                       # Energy for write commands per rank (pJ)
system.mem_ctrls1.rank1.refreshEnergy    20854735200.000004                       # Energy for refresh commands per rank (pJ)
system.mem_ctrls1.rank1.actBackEnergy     52870702260                       # Energy for active background per rank (pJ)
system.mem_ctrls1.rank1.preBackEnergy     56925912480                       # Energy for precharge background per rank (pJ)
system.mem_ctrls1.rank1.actPowerDownEnergy            0                       # Energy for active power-down per rank (pJ)
system.mem_ctrls1.rank1.prePowerDownEnergy            0                       # Energy for precharge power-down per rank (pJ)
system.mem_ctrls1.rank1.selfRefreshEnergy            0                       # Energy for self refresh per rank (pJ)
system.mem_ctrls1.rank1.totalEnergy      131679432405                       # Total energy per rank (pJ)
system.mem_ctrls1.rank1.averagePower       498.427911                       # Core power per rank (mW)
system.mem_ctrls1.rank1.totalIdleTime               0                       # Total Idle time Per DRAM Rank
system.mem_ctrls1.rank1.memoryStateTime::IDLE 147465444755                       # Time in different power states
system.mem_ctrls1.rank1.memoryStateTime::REF   8821800000                       # Time in different power states
system.mem_ctrls1.rank1.memoryStateTime::SREF            0                       # Time in different power states
system.mem_ctrls1.rank1.memoryStateTime::PRE_PDN            0                       # Time in different power states
system.mem_ctrls1.rank1.memoryStateTime::ACT 107902278746                       # Time in different power states
system.mem_ctrls1.rank1.memoryStateTime::ACT_PDN            0                       # Time in different power states
system.mem_ctrls1.rank0.actEnergy           403874100                       # Energy for activate commands per rank (pJ)
system.mem_ctrls1.rank0.preEnergy           214664175                       # Energy for precharge commands per rank (pJ)
system.mem_ctrls1.rank0.readEnergy          413220360                       # Energy for read commands per rank (pJ)
system.mem_ctrls1.rank0.writeEnergy                 0                       # Energy for write commands per rank (pJ)
system.mem_ctrls1.rank0.refreshEnergy    20854735200.000004                       # Energy for refresh commands per rank (pJ)
system.mem_ctrls1.rank0.actBackEnergy     52761400770                       # Energy for active background per rank (pJ)
system.mem_ctrls1.rank0.preBackEnergy     57018077280                       # Energy for precharge background per rank (pJ)
system.mem_ctrls1.rank0.actPowerDownEnergy            0                       # Energy for active power-down per rank (pJ)
system.mem_ctrls1.rank0.prePowerDownEnergy            0                       # Energy for precharge power-down per rank (pJ)
system.mem_ctrls1.rank0.selfRefreshEnergy            0                       # Energy for self refresh per rank (pJ)
system.mem_ctrls1.rank0.totalEnergy      131665971885                       # Total energy per rank (pJ)
system.mem_ctrls1.rank0.averagePower       498.376961                       # Core power per rank (mW)
system.mem_ctrls1.rank0.totalIdleTime               0                       # Total Idle time Per DRAM Rank
system.mem_ctrls1.rank0.memoryStateTime::IDLE 147706377507                       # Time in different power states
system.mem_ctrls1.rank0.memoryStateTime::REF   8821800000                       # Time in different power states
system.mem_ctrls1.rank0.memoryStateTime::SREF            0                       # Time in different power states
system.mem_ctrls1.rank0.memoryStateTime::PRE_PDN            0                       # Time in different power states
system.mem_ctrls1.rank0.memoryStateTime::ACT 107661345994                       # Time in different power states
system.mem_ctrls1.rank0.memoryStateTime::ACT_PDN            0                       # Time in different power states
system.mem_ctrls1.power_state.pwrStateResidencyTicks::UNDEFINED 101811038996501                       # Cumulative time (in ticks) in various power states
system.cpu_voltage_domain.voltage                   1                       # Voltage in Volts
system.iobus.trans_dist::ReadReq                  368                       # Transaction distribution
system.iobus.trans_dist::ReadResp                 368                       # Transaction distribution
system.iobus.trans_dist::WriteReq                1687                       # Transaction distribution
system.iobus.trans_dist::WriteResp               1687                       # Transaction distribution
system.iobus.pkt_count_system.pc.south_bridge.io_apic.int_master::system.ruby.l1_cntrl1.sequencer.pio-slave-port          170                       # Packet count per connected master and slave (bytes)
system.iobus.pkt_count_system.pc.south_bridge.io_apic.int_master::total          170                       # Packet count per connected master and slave (bytes)
system.iobus.pkt_count_system.ruby.l1_cntrl0.sequencer.mem-master-port::system.ruby.l1_cntrl0.sequencer.pio-slave-port          740                       # Packet count per connected master and slave (bytes)
system.iobus.pkt_count_system.ruby.l1_cntrl0.sequencer.mem-master-port::system.ruby.l1_cntrl1.sequencer.pio-slave-port           18                       # Packet count per connected master and slave (bytes)
system.iobus.pkt_count_system.ruby.l1_cntrl0.sequencer.mem-master-port::system.ruby.l1_cntrl2.sequencer.pio-slave-port           16                       # Packet count per connected master and slave (bytes)
system.iobus.pkt_count_system.ruby.l1_cntrl0.sequencer.mem-master-port::system.ruby.l1_cntrl3.sequencer.pio-slave-port           16                       # Packet count per connected master and slave (bytes)
system.iobus.pkt_count_system.ruby.l1_cntrl0.sequencer.mem-master-port::total          790                       # Packet count per connected master and slave (bytes)
system.iobus.pkt_count_system.ruby.l1_cntrl1.sequencer.mem-master-port::system.pc.south_bridge.ide.pio           12                       # Packet count per connected master and slave (bytes)
system.iobus.pkt_count_system.ruby.l1_cntrl1.sequencer.mem-master-port::system.pc.com_1.pio          676                       # Packet count per connected master and slave (bytes)
system.iobus.pkt_count_system.ruby.l1_cntrl1.sequencer.mem-master-port::system.ruby.l1_cntrl0.sequencer.pio-slave-port           30                       # Packet count per connected master and slave (bytes)
system.iobus.pkt_count_system.ruby.l1_cntrl1.sequencer.mem-master-port::system.ruby.l1_cntrl1.sequencer.pio-slave-port          852                       # Packet count per connected master and slave (bytes)
system.iobus.pkt_count_system.ruby.l1_cntrl1.sequencer.mem-master-port::system.ruby.l1_cntrl2.sequencer.pio-slave-port           34                       # Packet count per connected master and slave (bytes)
system.iobus.pkt_count_system.ruby.l1_cntrl1.sequencer.mem-master-port::system.ruby.l1_cntrl3.sequencer.pio-slave-port           28                       # Packet count per connected master and slave (bytes)
system.iobus.pkt_count_system.ruby.l1_cntrl1.sequencer.mem-master-port::total         1632                       # Packet count per connected master and slave (bytes)
system.iobus.pkt_count_system.ruby.l1_cntrl2.sequencer.mem-master-port::system.pc.south_bridge.ide.pio           34                       # Packet count per connected master and slave (bytes)
system.iobus.pkt_count_system.ruby.l1_cntrl2.sequencer.mem-master-port::system.pc.com_1.pio            2                       # Packet count per connected master and slave (bytes)
system.iobus.pkt_count_system.ruby.l1_cntrl2.sequencer.mem-master-port::system.ruby.l1_cntrl0.sequencer.pio-slave-port           14                       # Packet count per connected master and slave (bytes)
system.iobus.pkt_count_system.ruby.l1_cntrl2.sequencer.mem-master-port::system.ruby.l1_cntrl1.sequencer.pio-slave-port           10                       # Packet count per connected master and slave (bytes)
system.iobus.pkt_count_system.ruby.l1_cntrl2.sequencer.mem-master-port::system.ruby.l1_cntrl2.sequencer.pio-slave-port          696                       # Packet count per connected master and slave (bytes)
system.iobus.pkt_count_system.ruby.l1_cntrl2.sequencer.mem-master-port::system.ruby.l1_cntrl3.sequencer.pio-slave-port           12                       # Packet count per connected master and slave (bytes)
system.iobus.pkt_count_system.ruby.l1_cntrl2.sequencer.mem-master-port::total          768                       # Packet count per connected master and slave (bytes)
system.iobus.pkt_count_system.ruby.l1_cntrl3.sequencer.mem-master-port::system.ruby.l1_cntrl0.sequencer.pio-slave-port           16                       # Packet count per connected master and slave (bytes)
system.iobus.pkt_count_system.ruby.l1_cntrl3.sequencer.mem-master-port::system.ruby.l1_cntrl1.sequencer.pio-slave-port           16                       # Packet count per connected master and slave (bytes)
system.iobus.pkt_count_system.ruby.l1_cntrl3.sequencer.mem-master-port::system.ruby.l1_cntrl2.sequencer.pio-slave-port           14                       # Packet count per connected master and slave (bytes)
system.iobus.pkt_count_system.ruby.l1_cntrl3.sequencer.mem-master-port::system.ruby.l1_cntrl3.sequencer.pio-slave-port          704                       # Packet count per connected master and slave (bytes)
system.iobus.pkt_count_system.ruby.l1_cntrl3.sequencer.mem-master-port::total          750                       # Packet count per connected master and slave (bytes)
system.iobus.pkt_count::total                    4110                       # Packet count per connected master and slave (bytes)
system.iobus.pkt_size_system.pc.south_bridge.io_apic.int_master::system.ruby.l1_cntrl1.sequencer.pio-slave-port          340                       # Cumulative packet size per connected master and slave (bytes)
system.iobus.pkt_size_system.pc.south_bridge.io_apic.int_master::total          340                       # Cumulative packet size per connected master and slave (bytes)
system.iobus.pkt_size_system.ruby.l1_cntrl0.sequencer.mem-master-port::system.ruby.l1_cntrl0.sequencer.pio-slave-port         1480                       # Cumulative packet size per connected master and slave (bytes)
system.iobus.pkt_size_system.ruby.l1_cntrl0.sequencer.mem-master-port::system.ruby.l1_cntrl1.sequencer.pio-slave-port           36                       # Cumulative packet size per connected master and slave (bytes)
system.iobus.pkt_size_system.ruby.l1_cntrl0.sequencer.mem-master-port::system.ruby.l1_cntrl2.sequencer.pio-slave-port           32                       # Cumulative packet size per connected master and slave (bytes)
system.iobus.pkt_size_system.ruby.l1_cntrl0.sequencer.mem-master-port::system.ruby.l1_cntrl3.sequencer.pio-slave-port           32                       # Cumulative packet size per connected master and slave (bytes)
system.iobus.pkt_size_system.ruby.l1_cntrl0.sequencer.mem-master-port::total         1580                       # Cumulative packet size per connected master and slave (bytes)
system.iobus.pkt_size_system.ruby.l1_cntrl1.sequencer.mem-master-port::system.pc.south_bridge.ide.pio            6                       # Cumulative packet size per connected master and slave (bytes)
system.iobus.pkt_size_system.ruby.l1_cntrl1.sequencer.mem-master-port::system.pc.com_1.pio          338                       # Cumulative packet size per connected master and slave (bytes)
system.iobus.pkt_size_system.ruby.l1_cntrl1.sequencer.mem-master-port::system.ruby.l1_cntrl0.sequencer.pio-slave-port           60                       # Cumulative packet size per connected master and slave (bytes)
system.iobus.pkt_size_system.ruby.l1_cntrl1.sequencer.mem-master-port::system.ruby.l1_cntrl1.sequencer.pio-slave-port         1704                       # Cumulative packet size per connected master and slave (bytes)
system.iobus.pkt_size_system.ruby.l1_cntrl1.sequencer.mem-master-port::system.ruby.l1_cntrl2.sequencer.pio-slave-port           68                       # Cumulative packet size per connected master and slave (bytes)
system.iobus.pkt_size_system.ruby.l1_cntrl1.sequencer.mem-master-port::system.ruby.l1_cntrl3.sequencer.pio-slave-port           56                       # Cumulative packet size per connected master and slave (bytes)
system.iobus.pkt_size_system.ruby.l1_cntrl1.sequencer.mem-master-port::total         2232                       # Cumulative packet size per connected master and slave (bytes)
system.iobus.pkt_size_system.ruby.l1_cntrl2.sequencer.mem-master-port::system.pc.south_bridge.ide.pio           20                       # Cumulative packet size per connected master and slave (bytes)
system.iobus.pkt_size_system.ruby.l1_cntrl2.sequencer.mem-master-port::system.pc.com_1.pio            1                       # Cumulative packet size per connected master and slave (bytes)
system.iobus.pkt_size_system.ruby.l1_cntrl2.sequencer.mem-master-port::system.ruby.l1_cntrl0.sequencer.pio-slave-port           28                       # Cumulative packet size per connected master and slave (bytes)
system.iobus.pkt_size_system.ruby.l1_cntrl2.sequencer.mem-master-port::system.ruby.l1_cntrl1.sequencer.pio-slave-port           20                       # Cumulative packet size per connected master and slave (bytes)
system.iobus.pkt_size_system.ruby.l1_cntrl2.sequencer.mem-master-port::system.ruby.l1_cntrl2.sequencer.pio-slave-port         1392                       # Cumulative packet size per connected master and slave (bytes)
system.iobus.pkt_size_system.ruby.l1_cntrl2.sequencer.mem-master-port::system.ruby.l1_cntrl3.sequencer.pio-slave-port           24                       # Cumulative packet size per connected master and slave (bytes)
system.iobus.pkt_size_system.ruby.l1_cntrl2.sequencer.mem-master-port::total         1485                       # Cumulative packet size per connected master and slave (bytes)
system.iobus.pkt_size_system.ruby.l1_cntrl3.sequencer.mem-master-port::system.ruby.l1_cntrl0.sequencer.pio-slave-port           32                       # Cumulative packet size per connected master and slave (bytes)
system.iobus.pkt_size_system.ruby.l1_cntrl3.sequencer.mem-master-port::system.ruby.l1_cntrl1.sequencer.pio-slave-port           32                       # Cumulative packet size per connected master and slave (bytes)
system.iobus.pkt_size_system.ruby.l1_cntrl3.sequencer.mem-master-port::system.ruby.l1_cntrl2.sequencer.pio-slave-port           28                       # Cumulative packet size per connected master and slave (bytes)
system.iobus.pkt_size_system.ruby.l1_cntrl3.sequencer.mem-master-port::system.ruby.l1_cntrl3.sequencer.pio-slave-port         1408                       # Cumulative packet size per connected master and slave (bytes)
system.iobus.pkt_size_system.ruby.l1_cntrl3.sequencer.mem-master-port::total         1500                       # Cumulative packet size per connected master and slave (bytes)
system.iobus.pkt_size::total                     7137                       # Cumulative packet size per connected master and slave (bytes)
system.iobus.reqLayer2.occupancy                38500                       # Layer occupancy (ticks)
system.iobus.reqLayer2.utilization                0.0                       # Layer utilization (%)
system.iobus.power_state.pwrStateResidencyTicks::UNDEFINED 101811038996501                       # Cumulative time (in ticks) in various power states
system.iobus.reqLayer19.occupancy              913703                       # Layer occupancy (ticks)
system.iobus.reqLayer19.utilization               0.0                       # Layer utilization (%)
system.iobus.reqLayer17.occupancy              945700                       # Layer occupancy (ticks)
system.iobus.reqLayer17.utilization               0.0                       # Layer utilization (%)
system.iobus.reqLayer12.occupancy              434000                       # Layer occupancy (ticks)
system.iobus.reqLayer12.utilization               0.0                       # Layer utilization (%)
system.iobus.reqLayer18.occupancy             1189698                       # Layer occupancy (ticks)
system.iobus.reqLayer18.utilization               0.0                       # Layer utilization (%)
system.iobus.respLayer9.occupancy              570500                       # Layer occupancy (ticks)
system.iobus.respLayer9.utilization               0.0                       # Layer utilization (%)
system.iobus.respLayer5.occupancy             1331000                       # Layer occupancy (ticks)
system.iobus.respLayer5.utilization               0.0                       # Layer utilization (%)
system.iobus.respLayer7.occupancy              579000                       # Layer occupancy (ticks)
system.iobus.respLayer7.utilization               0.0                       # Layer utilization (%)
system.iobus.respLayer0.occupancy              124499                       # Layer occupancy (ticks)
system.iobus.respLayer0.utilization               0.0                       # Layer utilization (%)
system.iobus.respLayer3.occupancy              605000                       # Layer occupancy (ticks)
system.iobus.respLayer3.utilization               0.0                       # Layer utilization (%)
system.iobus.reqLayer20.occupancy              910703                       # Layer occupancy (ticks)
system.iobus.reqLayer20.utilization               0.0                       # Layer utilization (%)

---------- End Simulation Statistics   ----------
