
---------- Begin Simulation Statistics ----------
final_tick                                 1256652001                       # Number of ticks from beginning of simulation (restored from checkpoints and never reset)
host_inst_rate                                 259086                       # Simulator instruction rate (inst/s)
host_mem_usage                                 795932                       # Number of bytes of host memory used
host_op_rate                                   473638                       # Simulator op (including micro ops) rate (op/s)
host_seconds                                     1.82                       # Real time elapsed on the host
host_tick_rate                              691837561                       # Simulator tick rate (ticks/s)
sim_freq                                 1000000000000                       # Frequency of simulated ticks
sim_insts                                      470575                       # Number of instructions simulated
sim_ops                                        860309                       # Number of ops (including micro ops) simulated
sim_seconds                                  0.001257                       # Number of seconds simulated
sim_ticks                                  1256652001                       # Number of ticks simulated
system.cpu0.Branches                            83513                       # Number of branches fetched
system.cpu0.committedInsts                     470575                       # Number of instructions committed
system.cpu0.committedOps                       860309                       # Number of ops (including micro ops) committed
system.cpu0.dtb.rdAccesses                     131489                       # TLB accesses on read requests
system.cpu0.dtb.rdMisses                          267                       # TLB misses on read requests
system.cpu0.dtb.wrAccesses                      57920                       # TLB accesses on write requests
system.cpu0.dtb.wrMisses                           60                       # TLB misses on write requests
system.cpu0.idle_fraction                           0                       # Percentage of idle cycles
system.cpu0.itb.rdAccesses                          0                       # TLB accesses on read requests
system.cpu0.itb.rdMisses                            0                       # TLB misses on read requests
system.cpu0.itb.wrAccesses                     618144                       # TLB accesses on write requests
system.cpu0.itb.wrMisses                          262                       # TLB misses on write requests
system.cpu0.not_idle_fraction                       1                       # Percentage of non-idle cycles
system.cpu0.numCycles                         2513303                       # number of cpu cycles simulated
system.cpu0.numWorkItemsCompleted                   0                       # number of work items this cpu completed
system.cpu0.numWorkItemsStarted                     0                       # number of work items this cpu started
system.cpu0.num_busy_cycles                   2513303                       # Number of busy cycles
system.cpu0.num_cc_register_reads              423254                       # number of times the CC registers were read
system.cpu0.num_cc_register_writes             358055                       # number of times the CC registers were written
system.cpu0.num_conditional_control_insts        54546                       # number of instructions that are conditional controls
system.cpu0.num_fp_alu_accesses                 45161                       # Number of float alu accesses
system.cpu0.num_fp_insts                        45161                       # number of float instructions
system.cpu0.num_fp_register_reads               46649                       # number of times the floating registers were read
system.cpu0.num_fp_register_writes              34667                       # number of times the floating registers were written
system.cpu0.num_func_calls                      23163                       # number of times a function call or return occured
system.cpu0.num_idle_cycles                         0                       # Number of idle cycles
system.cpu0.num_int_alu_accesses               836033                       # Number of integer alu accesses
system.cpu0.num_int_insts                      836033                       # number of integer instructions
system.cpu0.num_int_register_reads            1693739                       # number of times the integer registers were read
system.cpu0.num_int_register_writes            689986                       # number of times the integer registers were written
system.cpu0.num_load_insts                     131468                       # Number of load instructions
system.cpu0.num_mem_refs                       189388                       # number of memory refs
system.cpu0.num_store_insts                     57920                       # Number of store instructions
system.cpu0.num_vec_alu_accesses                    0                       # Number of vector alu accesses
system.cpu0.num_vec_insts                           0                       # number of vector instructions
system.cpu0.num_vec_register_reads                  0                       # number of times the vector registers were read
system.cpu0.num_vec_register_writes                 0                       # number of times the vector registers were written
system.cpu0.op_class::No_OpClass                 3742      0.43%      0.43% # Class of executed instruction
system.cpu0.op_class::IntAlu                   640082     74.39%     74.83% # Class of executed instruction
system.cpu0.op_class::IntMult                    3342      0.39%     75.22% # Class of executed instruction
system.cpu0.op_class::IntDiv                     2154      0.25%     75.47% # Class of executed instruction
system.cpu0.op_class::FloatAdd                   6913      0.80%     76.27% # Class of executed instruction
system.cpu0.op_class::FloatCmp                      0      0.00%     76.27% # Class of executed instruction
system.cpu0.op_class::FloatCvt                     96      0.01%     76.28% # Class of executed instruction
system.cpu0.op_class::FloatMult                     0      0.00%     76.28% # Class of executed instruction
system.cpu0.op_class::FloatMultAcc                  0      0.00%     76.28% # Class of executed instruction
system.cpu0.op_class::FloatDiv                      0      0.00%     76.28% # Class of executed instruction
system.cpu0.op_class::FloatMisc                     0      0.00%     76.28% # Class of executed instruction
system.cpu0.op_class::FloatSqrt                     0      0.00%     76.28% # Class of executed instruction
system.cpu0.op_class::SimdAdd                    2014      0.23%     76.52% # Class of executed instruction
system.cpu0.op_class::SimdAddAcc                    0      0.00%     76.52% # Class of executed instruction
system.cpu0.op_class::SimdAlu                    2610      0.30%     76.82% # Class of executed instruction
system.cpu0.op_class::SimdCmp                       6      0.00%     76.82% # Class of executed instruction
system.cpu0.op_class::SimdCvt                    3642      0.42%     77.24% # Class of executed instruction
system.cpu0.op_class::SimdMisc                   2241      0.26%     77.50% # Class of executed instruction
system.cpu0.op_class::SimdMult                      0      0.00%     77.50% # Class of executed instruction
system.cpu0.op_class::SimdMultAcc                   0      0.00%     77.50% # Class of executed instruction
system.cpu0.op_class::SimdShift                   884      0.10%     77.61% # Class of executed instruction
system.cpu0.op_class::SimdShiftAcc                  0      0.00%     77.61% # Class of executed instruction
system.cpu0.op_class::SimdDiv                       0      0.00%     77.61% # Class of executed instruction
system.cpu0.op_class::SimdSqrt                      0      0.00%     77.61% # Class of executed instruction
system.cpu0.op_class::SimdFloatAdd               3294      0.38%     77.99% # Class of executed instruction
system.cpu0.op_class::SimdFloatAlu                  0      0.00%     77.99% # Class of executed instruction
system.cpu0.op_class::SimdFloatCmp                  0      0.00%     77.99% # Class of executed instruction
system.cpu0.op_class::SimdFloatCvt                  0      0.00%     77.99% # Class of executed instruction
system.cpu0.op_class::SimdFloatDiv                  0      0.00%     77.99% # Class of executed instruction
system.cpu0.op_class::SimdFloatMisc                 0      0.00%     77.99% # Class of executed instruction
system.cpu0.op_class::SimdFloatMult                 0      0.00%     77.99% # Class of executed instruction
system.cpu0.op_class::SimdFloatMultAcc              0      0.00%     77.99% # Class of executed instruction
system.cpu0.op_class::SimdFloatSqrt                 0      0.00%     77.99% # Class of executed instruction
system.cpu0.op_class::SimdReduceAdd                 0      0.00%     77.99% # Class of executed instruction
system.cpu0.op_class::SimdReduceAlu                 0      0.00%     77.99% # Class of executed instruction
system.cpu0.op_class::SimdReduceCmp                 0      0.00%     77.99% # Class of executed instruction
system.cpu0.op_class::SimdFloatReduceAdd            0      0.00%     77.99% # Class of executed instruction
system.cpu0.op_class::SimdFloatReduceCmp            0      0.00%     77.99% # Class of executed instruction
system.cpu0.op_class::SimdAes                       0      0.00%     77.99% # Class of executed instruction
system.cpu0.op_class::SimdAesMix                    0      0.00%     77.99% # Class of executed instruction
system.cpu0.op_class::SimdSha1Hash                  0      0.00%     77.99% # Class of executed instruction
system.cpu0.op_class::SimdSha1Hash2                 0      0.00%     77.99% # Class of executed instruction
system.cpu0.op_class::SimdSha256Hash                0      0.00%     77.99% # Class of executed instruction
system.cpu0.op_class::SimdSha256Hash2               0      0.00%     77.99% # Class of executed instruction
system.cpu0.op_class::SimdShaSigma2                 0      0.00%     77.99% # Class of executed instruction
system.cpu0.op_class::SimdShaSigma3                 0      0.00%     77.99% # Class of executed instruction
system.cpu0.op_class::SimdPredAlu                   0      0.00%     77.99% # Class of executed instruction
system.cpu0.op_class::MemRead                  117329     13.64%     91.63% # Class of executed instruction
system.cpu0.op_class::MemWrite                  49392      5.74%     97.37% # Class of executed instruction
system.cpu0.op_class::FloatMemRead              14139      1.64%     99.01% # Class of executed instruction
system.cpu0.op_class::FloatMemWrite              8528      0.99%    100.00% # Class of executed instruction
system.cpu0.op_class::IprAccess                     0      0.00%    100.00% # Class of executed instruction
system.cpu0.op_class::InstPrefetch                  0      0.00%    100.00% # Class of executed instruction
system.cpu0.op_class::total                    860408                       # Class of executed instruction
system.cpu0.workload.numSyscalls                   65                       # Number of system calls
system.cpu1.committedInsts                          0                       # Number of instructions committed
system.cpu1.committedOps                            0                       # Number of ops (including micro ops) committed
system.cpu1.dtb.rdAccesses                          0                       # TLB accesses on read requests
system.cpu1.dtb.rdMisses                            0                       # TLB misses on read requests
system.cpu1.dtb.wrAccesses                          0                       # TLB accesses on write requests
system.cpu1.dtb.wrMisses                            0                       # TLB misses on write requests
system.cpu1.idle_fraction                           1                       # Percentage of idle cycles
system.cpu1.itb.rdAccesses                          0                       # TLB accesses on read requests
system.cpu1.itb.rdMisses                            0                       # TLB misses on read requests
system.cpu1.itb.wrAccesses                          0                       # TLB accesses on write requests
system.cpu1.itb.wrMisses                            0                       # TLB misses on write requests
system.cpu1.not_idle_fraction                       0                       # Percentage of non-idle cycles
system.cpu1.numCycles                               0                       # number of cpu cycles simulated
system.cpu1.numWorkItemsCompleted                   0                       # number of work items this cpu completed
system.cpu1.numWorkItemsStarted                     0                       # number of work items this cpu started
system.cpu1.num_busy_cycles                         0                       # Number of busy cycles
system.cpu1.num_conditional_control_insts            0                       # number of instructions that are conditional controls
system.cpu1.num_fp_alu_accesses                     0                       # Number of float alu accesses
system.cpu1.num_fp_insts                            0                       # number of float instructions
system.cpu1.num_fp_register_reads                   0                       # number of times the floating registers were read
system.cpu1.num_fp_register_writes                  0                       # number of times the floating registers were written
system.cpu1.num_func_calls                          0                       # number of times a function call or return occured
system.cpu1.num_idle_cycles                         0                       # Number of idle cycles
system.cpu1.num_int_alu_accesses                    0                       # Number of integer alu accesses
system.cpu1.num_int_insts                           0                       # number of integer instructions
system.cpu1.num_int_register_reads                  0                       # number of times the integer registers were read
system.cpu1.num_int_register_writes                 0                       # number of times the integer registers were written
system.cpu1.num_load_insts                          0                       # Number of load instructions
system.cpu1.num_mem_refs                            0                       # number of memory refs
system.cpu1.num_store_insts                         0                       # Number of store instructions
system.cpu1.num_vec_alu_accesses                    0                       # Number of vector alu accesses
system.cpu1.num_vec_insts                           0                       # number of vector instructions
system.cpu1.num_vec_register_reads                  0                       # number of times the vector registers were read
system.cpu1.num_vec_register_writes                 0                       # number of times the vector registers were written
system.cpu1.op_class::No_OpClass                    0                       # Class of executed instruction
system.cpu1.op_class::IntAlu                        0                       # Class of executed instruction
system.cpu1.op_class::IntMult                       0                       # Class of executed instruction
system.cpu1.op_class::IntDiv                        0                       # Class of executed instruction
system.cpu1.op_class::FloatAdd                      0                       # Class of executed instruction
system.cpu1.op_class::FloatCmp                      0                       # Class of executed instruction
system.cpu1.op_class::FloatCvt                      0                       # Class of executed instruction
system.cpu1.op_class::FloatMult                     0                       # Class of executed instruction
system.cpu1.op_class::FloatMultAcc                  0                       # Class of executed instruction
system.cpu1.op_class::FloatDiv                      0                       # Class of executed instruction
system.cpu1.op_class::FloatMisc                     0                       # Class of executed instruction
system.cpu1.op_class::FloatSqrt                     0                       # Class of executed instruction
system.cpu1.op_class::SimdAdd                       0                       # Class of executed instruction
system.cpu1.op_class::SimdAddAcc                    0                       # Class of executed instruction
system.cpu1.op_class::SimdAlu                       0                       # Class of executed instruction
system.cpu1.op_class::SimdCmp                       0                       # Class of executed instruction
system.cpu1.op_class::SimdCvt                       0                       # Class of executed instruction
system.cpu1.op_class::SimdMisc                      0                       # Class of executed instruction
system.cpu1.op_class::SimdMult                      0                       # Class of executed instruction
system.cpu1.op_class::SimdMultAcc                   0                       # Class of executed instruction
system.cpu1.op_class::SimdShift                     0                       # Class of executed instruction
system.cpu1.op_class::SimdShiftAcc                  0                       # Class of executed instruction
system.cpu1.op_class::SimdDiv                       0                       # Class of executed instruction
system.cpu1.op_class::SimdSqrt                      0                       # Class of executed instruction
system.cpu1.op_class::SimdFloatAdd                  0                       # Class of executed instruction
system.cpu1.op_class::SimdFloatAlu                  0                       # Class of executed instruction
system.cpu1.op_class::SimdFloatCmp                  0                       # Class of executed instruction
system.cpu1.op_class::SimdFloatCvt                  0                       # Class of executed instruction
system.cpu1.op_class::SimdFloatDiv                  0                       # Class of executed instruction
system.cpu1.op_class::SimdFloatMisc                 0                       # Class of executed instruction
system.cpu1.op_class::SimdFloatMult                 0                       # Class of executed instruction
system.cpu1.op_class::SimdFloatMultAcc              0                       # Class of executed instruction
system.cpu1.op_class::SimdFloatSqrt                 0                       # Class of executed instruction
system.cpu1.op_class::SimdReduceAdd                 0                       # Class of executed instruction
system.cpu1.op_class::SimdReduceAlu                 0                       # Class of executed instruction
system.cpu1.op_class::SimdReduceCmp                 0                       # Class of executed instruction
system.cpu1.op_class::SimdFloatReduceAdd            0                       # Class of executed instruction
system.cpu1.op_class::SimdFloatReduceCmp            0                       # Class of executed instruction
system.cpu1.op_class::SimdAes                       0                       # Class of executed instruction
system.cpu1.op_class::SimdAesMix                    0                       # Class of executed instruction
system.cpu1.op_class::SimdSha1Hash                  0                       # Class of executed instruction
system.cpu1.op_class::SimdSha1Hash2                 0                       # Class of executed instruction
system.cpu1.op_class::SimdSha256Hash                0                       # Class of executed instruction
system.cpu1.op_class::SimdSha256Hash2               0                       # Class of executed instruction
system.cpu1.op_class::SimdShaSigma2                 0                       # Class of executed instruction
system.cpu1.op_class::SimdShaSigma3                 0                       # Class of executed instruction
system.cpu1.op_class::SimdPredAlu                   0                       # Class of executed instruction
system.cpu1.op_class::MemRead                       0                       # Class of executed instruction
system.cpu1.op_class::MemWrite                      0                       # Class of executed instruction
system.cpu1.op_class::FloatMemRead                  0                       # Class of executed instruction
system.cpu1.op_class::FloatMemWrite                 0                       # Class of executed instruction
system.cpu1.op_class::IprAccess                     0                       # Class of executed instruction
system.cpu1.op_class::InstPrefetch                  0                       # Class of executed instruction
system.cpu1.op_class::total                         0                       # Class of executed instruction
system.cpu2.committedInsts                          0                       # Number of instructions committed
system.cpu2.committedOps                            0                       # Number of ops (including micro ops) committed
system.cpu2.dtb.rdAccesses                          0                       # TLB accesses on read requests
system.cpu2.dtb.rdMisses                            0                       # TLB misses on read requests
system.cpu2.dtb.wrAccesses                          0                       # TLB accesses on write requests
system.cpu2.dtb.wrMisses                            0                       # TLB misses on write requests
system.cpu2.idle_fraction                           1                       # Percentage of idle cycles
system.cpu2.itb.rdAccesses                          0                       # TLB accesses on read requests
system.cpu2.itb.rdMisses                            0                       # TLB misses on read requests
system.cpu2.itb.wrAccesses                          0                       # TLB accesses on write requests
system.cpu2.itb.wrMisses                            0                       # TLB misses on write requests
system.cpu2.not_idle_fraction                       0                       # Percentage of non-idle cycles
system.cpu2.numCycles                               0                       # number of cpu cycles simulated
system.cpu2.numWorkItemsCompleted                   0                       # number of work items this cpu completed
system.cpu2.numWorkItemsStarted                     0                       # number of work items this cpu started
system.cpu2.num_busy_cycles                         0                       # Number of busy cycles
system.cpu2.num_conditional_control_insts            0                       # number of instructions that are conditional controls
system.cpu2.num_fp_alu_accesses                     0                       # Number of float alu accesses
system.cpu2.num_fp_insts                            0                       # number of float instructions
system.cpu2.num_fp_register_reads                   0                       # number of times the floating registers were read
system.cpu2.num_fp_register_writes                  0                       # number of times the floating registers were written
system.cpu2.num_func_calls                          0                       # number of times a function call or return occured
system.cpu2.num_idle_cycles                         0                       # Number of idle cycles
system.cpu2.num_int_alu_accesses                    0                       # Number of integer alu accesses
system.cpu2.num_int_insts                           0                       # number of integer instructions
system.cpu2.num_int_register_reads                  0                       # number of times the integer registers were read
system.cpu2.num_int_register_writes                 0                       # number of times the integer registers were written
system.cpu2.num_load_insts                          0                       # Number of load instructions
system.cpu2.num_mem_refs                            0                       # number of memory refs
system.cpu2.num_store_insts                         0                       # Number of store instructions
system.cpu2.num_vec_alu_accesses                    0                       # Number of vector alu accesses
system.cpu2.num_vec_insts                           0                       # number of vector instructions
system.cpu2.num_vec_register_reads                  0                       # number of times the vector registers were read
system.cpu2.num_vec_register_writes                 0                       # number of times the vector registers were written
system.cpu2.op_class::No_OpClass                    0                       # Class of executed instruction
system.cpu2.op_class::IntAlu                        0                       # Class of executed instruction
system.cpu2.op_class::IntMult                       0                       # Class of executed instruction
system.cpu2.op_class::IntDiv                        0                       # Class of executed instruction
system.cpu2.op_class::FloatAdd                      0                       # Class of executed instruction
system.cpu2.op_class::FloatCmp                      0                       # Class of executed instruction
system.cpu2.op_class::FloatCvt                      0                       # Class of executed instruction
system.cpu2.op_class::FloatMult                     0                       # Class of executed instruction
system.cpu2.op_class::FloatMultAcc                  0                       # Class of executed instruction
system.cpu2.op_class::FloatDiv                      0                       # Class of executed instruction
system.cpu2.op_class::FloatMisc                     0                       # Class of executed instruction
system.cpu2.op_class::FloatSqrt                     0                       # Class of executed instruction
system.cpu2.op_class::SimdAdd                       0                       # Class of executed instruction
system.cpu2.op_class::SimdAddAcc                    0                       # Class of executed instruction
system.cpu2.op_class::SimdAlu                       0                       # Class of executed instruction
system.cpu2.op_class::SimdCmp                       0                       # Class of executed instruction
system.cpu2.op_class::SimdCvt                       0                       # Class of executed instruction
system.cpu2.op_class::SimdMisc                      0                       # Class of executed instruction
system.cpu2.op_class::SimdMult                      0                       # Class of executed instruction
system.cpu2.op_class::SimdMultAcc                   0                       # Class of executed instruction
system.cpu2.op_class::SimdShift                     0                       # Class of executed instruction
system.cpu2.op_class::SimdShiftAcc                  0                       # Class of executed instruction
system.cpu2.op_class::SimdDiv                       0                       # Class of executed instruction
system.cpu2.op_class::SimdSqrt                      0                       # Class of executed instruction
system.cpu2.op_class::SimdFloatAdd                  0                       # Class of executed instruction
system.cpu2.op_class::SimdFloatAlu                  0                       # Class of executed instruction
system.cpu2.op_class::SimdFloatCmp                  0                       # Class of executed instruction
system.cpu2.op_class::SimdFloatCvt                  0                       # Class of executed instruction
system.cpu2.op_class::SimdFloatDiv                  0                       # Class of executed instruction
system.cpu2.op_class::SimdFloatMisc                 0                       # Class of executed instruction
system.cpu2.op_class::SimdFloatMult                 0                       # Class of executed instruction
system.cpu2.op_class::SimdFloatMultAcc              0                       # Class of executed instruction
system.cpu2.op_class::SimdFloatSqrt                 0                       # Class of executed instruction
system.cpu2.op_class::SimdReduceAdd                 0                       # Class of executed instruction
system.cpu2.op_class::SimdReduceAlu                 0                       # Class of executed instruction
system.cpu2.op_class::SimdReduceCmp                 0                       # Class of executed instruction
system.cpu2.op_class::SimdFloatReduceAdd            0                       # Class of executed instruction
system.cpu2.op_class::SimdFloatReduceCmp            0                       # Class of executed instruction
system.cpu2.op_class::SimdAes                       0                       # Class of executed instruction
system.cpu2.op_class::SimdAesMix                    0                       # Class of executed instruction
system.cpu2.op_class::SimdSha1Hash                  0                       # Class of executed instruction
system.cpu2.op_class::SimdSha1Hash2                 0                       # Class of executed instruction
system.cpu2.op_class::SimdSha256Hash                0                       # Class of executed instruction
system.cpu2.op_class::SimdSha256Hash2               0                       # Class of executed instruction
system.cpu2.op_class::SimdShaSigma2                 0                       # Class of executed instruction
system.cpu2.op_class::SimdShaSigma3                 0                       # Class of executed instruction
system.cpu2.op_class::SimdPredAlu                   0                       # Class of executed instruction
system.cpu2.op_class::MemRead                       0                       # Class of executed instruction
system.cpu2.op_class::MemWrite                      0                       # Class of executed instruction
system.cpu2.op_class::FloatMemRead                  0                       # Class of executed instruction
system.cpu2.op_class::FloatMemWrite                 0                       # Class of executed instruction
system.cpu2.op_class::IprAccess                     0                       # Class of executed instruction
system.cpu2.op_class::InstPrefetch                  0                       # Class of executed instruction
system.cpu2.op_class::total                         0                       # Class of executed instruction
system.cpu3.committedInsts                          0                       # Number of instructions committed
system.cpu3.committedOps                            0                       # Number of ops (including micro ops) committed
system.cpu3.dtb.rdAccesses                          0                       # TLB accesses on read requests
system.cpu3.dtb.rdMisses                            0                       # TLB misses on read requests
system.cpu3.dtb.wrAccesses                          0                       # TLB accesses on write requests
system.cpu3.dtb.wrMisses                            0                       # TLB misses on write requests
system.cpu3.idle_fraction                           1                       # Percentage of idle cycles
system.cpu3.itb.rdAccesses                          0                       # TLB accesses on read requests
system.cpu3.itb.rdMisses                            0                       # TLB misses on read requests
system.cpu3.itb.wrAccesses                          0                       # TLB accesses on write requests
system.cpu3.itb.wrMisses                            0                       # TLB misses on write requests
system.cpu3.not_idle_fraction                       0                       # Percentage of non-idle cycles
system.cpu3.numCycles                               0                       # number of cpu cycles simulated
system.cpu3.numWorkItemsCompleted                   0                       # number of work items this cpu completed
system.cpu3.numWorkItemsStarted                     0                       # number of work items this cpu started
system.cpu3.num_busy_cycles                         0                       # Number of busy cycles
system.cpu3.num_conditional_control_insts            0                       # number of instructions that are conditional controls
system.cpu3.num_fp_alu_accesses                     0                       # Number of float alu accesses
system.cpu3.num_fp_insts                            0                       # number of float instructions
system.cpu3.num_fp_register_reads                   0                       # number of times the floating registers were read
system.cpu3.num_fp_register_writes                  0                       # number of times the floating registers were written
system.cpu3.num_func_calls                          0                       # number of times a function call or return occured
system.cpu3.num_idle_cycles                         0                       # Number of idle cycles
system.cpu3.num_int_alu_accesses                    0                       # Number of integer alu accesses
system.cpu3.num_int_insts                           0                       # number of integer instructions
system.cpu3.num_int_register_reads                  0                       # number of times the integer registers were read
system.cpu3.num_int_register_writes                 0                       # number of times the integer registers were written
system.cpu3.num_load_insts                          0                       # Number of load instructions
system.cpu3.num_mem_refs                            0                       # number of memory refs
system.cpu3.num_store_insts                         0                       # Number of store instructions
system.cpu3.num_vec_alu_accesses                    0                       # Number of vector alu accesses
system.cpu3.num_vec_insts                           0                       # number of vector instructions
system.cpu3.num_vec_register_reads                  0                       # number of times the vector registers were read
system.cpu3.num_vec_register_writes                 0                       # number of times the vector registers were written
system.cpu3.op_class::No_OpClass                    0                       # Class of executed instruction
system.cpu3.op_class::IntAlu                        0                       # Class of executed instruction
system.cpu3.op_class::IntMult                       0                       # Class of executed instruction
system.cpu3.op_class::IntDiv                        0                       # Class of executed instruction
system.cpu3.op_class::FloatAdd                      0                       # Class of executed instruction
system.cpu3.op_class::FloatCmp                      0                       # Class of executed instruction
system.cpu3.op_class::FloatCvt                      0                       # Class of executed instruction
system.cpu3.op_class::FloatMult                     0                       # Class of executed instruction
system.cpu3.op_class::FloatMultAcc                  0                       # Class of executed instruction
system.cpu3.op_class::FloatDiv                      0                       # Class of executed instruction
system.cpu3.op_class::FloatMisc                     0                       # Class of executed instruction
system.cpu3.op_class::FloatSqrt                     0                       # Class of executed instruction
system.cpu3.op_class::SimdAdd                       0                       # Class of executed instruction
system.cpu3.op_class::SimdAddAcc                    0                       # Class of executed instruction
system.cpu3.op_class::SimdAlu                       0                       # Class of executed instruction
system.cpu3.op_class::SimdCmp                       0                       # Class of executed instruction
system.cpu3.op_class::SimdCvt                       0                       # Class of executed instruction
system.cpu3.op_class::SimdMisc                      0                       # Class of executed instruction
system.cpu3.op_class::SimdMult                      0                       # Class of executed instruction
system.cpu3.op_class::SimdMultAcc                   0                       # Class of executed instruction
system.cpu3.op_class::SimdShift                     0                       # Class of executed instruction
system.cpu3.op_class::SimdShiftAcc                  0                       # Class of executed instruction
system.cpu3.op_class::SimdDiv                       0                       # Class of executed instruction
system.cpu3.op_class::SimdSqrt                      0                       # Class of executed instruction
system.cpu3.op_class::SimdFloatAdd                  0                       # Class of executed instruction
system.cpu3.op_class::SimdFloatAlu                  0                       # Class of executed instruction
system.cpu3.op_class::SimdFloatCmp                  0                       # Class of executed instruction
system.cpu3.op_class::SimdFloatCvt                  0                       # Class of executed instruction
system.cpu3.op_class::SimdFloatDiv                  0                       # Class of executed instruction
system.cpu3.op_class::SimdFloatMisc                 0                       # Class of executed instruction
system.cpu3.op_class::SimdFloatMult                 0                       # Class of executed instruction
system.cpu3.op_class::SimdFloatMultAcc              0                       # Class of executed instruction
system.cpu3.op_class::SimdFloatSqrt                 0                       # Class of executed instruction
system.cpu3.op_class::SimdReduceAdd                 0                       # Class of executed instruction
system.cpu3.op_class::SimdReduceAlu                 0                       # Class of executed instruction
system.cpu3.op_class::SimdReduceCmp                 0                       # Class of executed instruction
system.cpu3.op_class::SimdFloatReduceAdd            0                       # Class of executed instruction
system.cpu3.op_class::SimdFloatReduceCmp            0                       # Class of executed instruction
system.cpu3.op_class::SimdAes                       0                       # Class of executed instruction
system.cpu3.op_class::SimdAesMix                    0                       # Class of executed instruction
system.cpu3.op_class::SimdSha1Hash                  0                       # Class of executed instruction
system.cpu3.op_class::SimdSha1Hash2                 0                       # Class of executed instruction
system.cpu3.op_class::SimdSha256Hash                0                       # Class of executed instruction
system.cpu3.op_class::SimdSha256Hash2               0                       # Class of executed instruction
system.cpu3.op_class::SimdShaSigma2                 0                       # Class of executed instruction
system.cpu3.op_class::SimdShaSigma3                 0                       # Class of executed instruction
system.cpu3.op_class::SimdPredAlu                   0                       # Class of executed instruction
system.cpu3.op_class::MemRead                       0                       # Class of executed instruction
system.cpu3.op_class::MemWrite                      0                       # Class of executed instruction
system.cpu3.op_class::FloatMemRead                  0                       # Class of executed instruction
system.cpu3.op_class::FloatMemWrite                 0                       # Class of executed instruction
system.cpu3.op_class::IprAccess                     0                       # Class of executed instruction
system.cpu3.op_class::InstPrefetch                  0                       # Class of executed instruction
system.cpu3.op_class::total                         0                       # Class of executed instruction
system.ruby.Directory_Controller.I.deallocTBE |        1087     24.63%     24.63% |        1141     25.86%     50.49% |        1096     24.84%     75.32% |        1089     24.68%    100.00%
system.ruby.Directory_Controller.I.deallocTBE::total         4413                      
system.ruby.Directory_Controller.I_GetML1C1_0.Progress |         291     24.79%     24.79% |         302     25.72%     50.51% |         288     24.53%     75.04% |         293     24.96%    100.00%
system.ruby.Directory_Controller.I_GetML1C1_0.Progress::total         1174                      
system.ruby.Directory_Controller.I_GetSL1C1_0.Progress |        1052     24.68%     24.68% |        1095     25.69%     50.36% |        1064     24.96%     75.32% |        1052     24.68%    100.00%
system.ruby.Directory_Controller.I_GetSL1C1_0.Progress::total         4263                      
system.ruby.Directory_Controller.M.deallocTBE |         317     24.84%     24.84% |         328     25.71%     50.55% |         312     24.45%     75.00% |         319     25.00%    100.00%
system.ruby.Directory_Controller.M.deallocTBE::total         1276                      
system.ruby.Directory_Controller.M_PutML1C1_0.Progress |         199     24.75%     24.75% |         213     26.49%     51.24% |         194     24.13%     75.37% |         198     24.63%    100.00%
system.ruby.Directory_Controller.M_PutML1C1_0.Progress::total          804                      
system.ruby.Directory_Controller.Progress |        1568     24.72%     24.72% |        1636     25.79%     50.51% |        1570     24.75%     75.26% |        1569     24.74%    100.00%
system.ruby.Directory_Controller.Progress::total         6343                      
system.ruby.Directory_Controller.S.deallocTBE |        1052     24.68%     24.68% |        1095     25.69%     50.36% |        1064     24.96%     75.32% |        1052     24.68%    100.00%
system.ruby.Directory_Controller.S.deallocTBE::total         4263                      
system.ruby.Directory_Controller.S_GetML1C1_0.Progress |          26     25.49%     25.49% |          26     25.49%     50.98% |          24     23.53%     74.51% |          26     25.49%    100.00%
system.ruby.Directory_Controller.S_GetML1C1_0.Progress::total          102                      
system.ruby.Directory_Controller.deallocTBE |        2456     24.68%     24.68% |        2564     25.76%     50.44% |        2472     24.84%     75.28% |        2460     24.72%    100.00%
system.ruby.Directory_Controller.deallocTBE::total         9952                      
system.ruby.IFETCH.hit_latency_hist_seqr::bucket_size            1                      
system.ruby.IFETCH.hit_latency_hist_seqr::max_bucket            9                      
system.ruby.IFETCH.hit_latency_hist_seqr::samples       616785                      
system.ruby.IFETCH.hit_latency_hist_seqr |      616785    100.00%    100.00% |           0      0.00%    100.00% |           0      0.00%    100.00% |           0      0.00%    100.00% |           0      0.00%    100.00% |           0      0.00%    100.00% |           0      0.00%    100.00% |           0      0.00%    100.00% |           0      0.00%    100.00% |           0      0.00%    100.00%
system.ruby.IFETCH.hit_latency_hist_seqr::total       616785                      
system.ruby.IFETCH.latency_hist_seqr::bucket_size           32                      
system.ruby.IFETCH.latency_hist_seqr::max_bucket          319                      
system.ruby.IFETCH.latency_hist_seqr::samples       618074                      
system.ruby.IFETCH.latency_hist_seqr::mean     0.000270                      
system.ruby.IFETCH.latency_hist_seqr::stdev     0.212420                      
system.ruby.IFETCH.latency_hist_seqr     |      618073    100.00%    100.00% |           0      0.00%    100.00% |           0      0.00%    100.00% |           0      0.00%    100.00% |           0      0.00%    100.00% |           1      0.00%    100.00% |           0      0.00%    100.00% |           0      0.00%    100.00% |           0      0.00%    100.00% |           0      0.00%    100.00%
system.ruby.IFETCH.latency_hist_seqr::total       618074                      
system.ruby.IFETCH.miss_latency_hist_seqr::bucket_size           32                      
system.ruby.IFETCH.miss_latency_hist_seqr::max_bucket          319                      
system.ruby.IFETCH.miss_latency_hist_seqr::samples         1289                      
system.ruby.IFETCH.miss_latency_hist_seqr::mean     0.129558                      
system.ruby.IFETCH.miss_latency_hist_seqr::stdev     4.651468                      
system.ruby.IFETCH.miss_latency_hist_seqr |        1288     99.92%     99.92% |           0      0.00%     99.92% |           0      0.00%     99.92% |           0      0.00%     99.92% |           0      0.00%     99.92% |           1      0.08%    100.00% |           0      0.00%    100.00% |           0      0.00%    100.00% |           0      0.00%    100.00% |           0      0.00%    100.00%
system.ruby.IFETCH.miss_latency_hist_seqr::total         1289                      
system.ruby.L1Cache_Controller.I.allocI_load |        4263    100.00%    100.00% |           0      0.00%    100.00% |           0      0.00%    100.00% |           0      0.00%    100.00%
system.ruby.L1Cache_Controller.I.allocI_load::total         4263                      
system.ruby.L1Cache_Controller.I.allocI_store |        1174    100.00%    100.00% |           0      0.00%    100.00% |           0      0.00%    100.00% |           0      0.00%    100.00%
system.ruby.L1Cache_Controller.I.allocI_store::total         1174                      
system.ruby.L1Cache_Controller.I.deallocfwdfrom_in |        4413    100.00%    100.00% |           0      0.00%    100.00% |           0      0.00%    100.00% |           0      0.00%    100.00%
system.ruby.L1Cache_Controller.I.deallocfwdfrom_in::total         4413                      
system.ruby.L1Cache_Controller.M.MloadMEvent |       80343    100.00%    100.00% |           0      0.00%    100.00% |           0      0.00%    100.00% |           0      0.00%    100.00%
system.ruby.L1Cache_Controller.M.MloadMEvent::total        80343                      
system.ruby.L1Cache_Controller.M.MstoreMEvent |       57052    100.00%    100.00% |           0      0.00%    100.00% |           0      0.00%    100.00% |           0      0.00%    100.00%
system.ruby.L1Cache_Controller.M.MstoreMEvent::total        57052                      
system.ruby.L1Cache_Controller.M.allocTBE |         804    100.00%    100.00% |           0      0.00%    100.00% |           0      0.00%    100.00% |           0      0.00%    100.00%
system.ruby.L1Cache_Controller.M.allocTBE::total          804                      
system.ruby.L1Cache_Controller.M.externalstoreMrespfrom_in |        1276    100.00%    100.00% |           0      0.00%    100.00% |           0      0.00%    100.00% |           0      0.00%    100.00%
system.ruby.L1Cache_Controller.M.externalstoreMrespfrom_in::total         1276                      
system.ruby.L1Cache_Controller.M_evict.Progress |         804    100.00%    100.00% |           0      0.00%    100.00% |           0      0.00%    100.00% |           0      0.00%    100.00%
system.ruby.L1Cache_Controller.M_evict.Progress::total          804                      
system.ruby.L1Cache_Controller.M_evict.Stallmandatory_in |        3821    100.00%    100.00% |           0      0.00%    100.00% |           0      0.00%    100.00% |           0      0.00%    100.00%
system.ruby.L1Cache_Controller.M_evict.Stallmandatory_in::total         3821                      
system.ruby.L1Cache_Controller.MloadMEvent |       80343    100.00%    100.00% |           0      0.00%    100.00% |           0      0.00%    100.00% |           0      0.00%    100.00%
system.ruby.L1Cache_Controller.MloadMEvent::total        80343                      
system.ruby.L1Cache_Controller.MstoreMEvent |       57052    100.00%    100.00% |           0      0.00%    100.00% |           0      0.00%    100.00% |           0      0.00%    100.00%
system.ruby.L1Cache_Controller.MstoreMEvent::total        57052                      
system.ruby.L1Cache_Controller.Progress  |        4515    100.00%    100.00% |           0      0.00%    100.00% |           0      0.00%    100.00% |           0      0.00%    100.00%
system.ruby.L1Cache_Controller.Progress::total         4515                      
system.ruby.L1Cache_Controller.S.SloadSEvent |      664450    100.00%    100.00% |           0      0.00%    100.00% |           0      0.00%    100.00% |           0      0.00%    100.00%
system.ruby.L1Cache_Controller.S.SloadSEvent::total       664450                      
system.ruby.L1Cache_Controller.S.allocTBE |        3711    100.00%    100.00% |           0      0.00%    100.00% |           0      0.00%    100.00% |           0      0.00%    100.00%
system.ruby.L1Cache_Controller.S.allocTBE::total         3711                      
system.ruby.L1Cache_Controller.S.externalloadSrespfrom_in |        4263    100.00%    100.00% |           0      0.00%    100.00% |           0      0.00%    100.00% |           0      0.00%    100.00%
system.ruby.L1Cache_Controller.S.externalloadSrespfrom_in::total         4263                      
system.ruby.L1Cache_Controller.S_evict.Progress |        3609    100.00%    100.00% |           0      0.00%    100.00% |           0      0.00%    100.00% |           0      0.00%    100.00%
system.ruby.L1Cache_Controller.S_evict.Progress::total         3609                      
system.ruby.L1Cache_Controller.S_evict.Stallmandatory_in |        9939    100.00%    100.00% |           0      0.00%    100.00% |           0      0.00%    100.00% |           0      0.00%    100.00%
system.ruby.L1Cache_Controller.S_evict.Stallmandatory_in::total         9939                      
system.ruby.L1Cache_Controller.S_store.Progress |         102    100.00%    100.00% |           0      0.00%    100.00% |           0      0.00%    100.00% |           0      0.00%    100.00%
system.ruby.L1Cache_Controller.S_store.Progress::total          102                      
system.ruby.L1Cache_Controller.SloadSEvent |      664450    100.00%    100.00% |           0      0.00%    100.00% |           0      0.00%    100.00% |           0      0.00%    100.00%
system.ruby.L1Cache_Controller.SloadSEvent::total       664450                      
system.ruby.L1Cache_Controller.Stallmandatory_in |       13760    100.00%    100.00% |           0      0.00%    100.00% |           0      0.00%    100.00% |           0      0.00%    100.00%
system.ruby.L1Cache_Controller.Stallmandatory_in::total        13760                      
system.ruby.L1Cache_Controller.allocI_load |        4263    100.00%    100.00% |           0      0.00%    100.00% |           0      0.00%    100.00% |           0      0.00%    100.00%
system.ruby.L1Cache_Controller.allocI_load::total         4263                      
system.ruby.L1Cache_Controller.allocI_store |        1174    100.00%    100.00% |           0      0.00%    100.00% |           0      0.00%    100.00% |           0      0.00%    100.00%
system.ruby.L1Cache_Controller.allocI_store::total         1174                      
system.ruby.L1Cache_Controller.allocTBE  |        4515    100.00%    100.00% |           0      0.00%    100.00% |           0      0.00%    100.00% |           0      0.00%    100.00%
system.ruby.L1Cache_Controller.allocTBE::total         4515                      
system.ruby.L1Cache_Controller.deallocfwdfrom_in |        4413    100.00%    100.00% |           0      0.00%    100.00% |           0      0.00%    100.00% |           0      0.00%    100.00%
system.ruby.L1Cache_Controller.deallocfwdfrom_in::total         4413                      
system.ruby.L1Cache_Controller.externalloadSrespfrom_in |        4263    100.00%    100.00% |           0      0.00%    100.00% |           0      0.00%    100.00% |           0      0.00%    100.00%
system.ruby.L1Cache_Controller.externalloadSrespfrom_in::total         4263                      
system.ruby.L1Cache_Controller.externalstoreMrespfrom_in |        1276    100.00%    100.00% |           0      0.00%    100.00% |           0      0.00%    100.00% |           0      0.00%    100.00%
system.ruby.L1Cache_Controller.externalstoreMrespfrom_in::total         1276                      
system.ruby.LD.hit_latency_hist_seqr::bucket_size            1                      
system.ruby.LD.hit_latency_hist_seqr::max_bucket            9                      
system.ruby.LD.hit_latency_hist_seqr::samples       128008                      
system.ruby.LD.hit_latency_hist_seqr     |      128008    100.00%    100.00% |           0      0.00%    100.00% |           0      0.00%    100.00% |           0      0.00%    100.00% |           0      0.00%    100.00% |           0      0.00%    100.00% |           0      0.00%    100.00% |           0      0.00%    100.00% |           0      0.00%    100.00% |           0      0.00%    100.00%
system.ruby.LD.hit_latency_hist_seqr::total       128008                      
system.ruby.LD.latency_hist_seqr::bucket_size            1                      
system.ruby.LD.latency_hist_seqr::max_bucket            9                      
system.ruby.LD.latency_hist_seqr::samples       130982                      
system.ruby.LD.latency_hist_seqr         |      130982    100.00%    100.00% |           0      0.00%    100.00% |           0      0.00%    100.00% |           0      0.00%    100.00% |           0      0.00%    100.00% |           0      0.00%    100.00% |           0      0.00%    100.00% |           0      0.00%    100.00% |           0      0.00%    100.00% |           0      0.00%    100.00%
system.ruby.LD.latency_hist_seqr::total        130982                      
system.ruby.LD.miss_latency_hist_seqr::bucket_size            1                      
system.ruby.LD.miss_latency_hist_seqr::max_bucket            9                      
system.ruby.LD.miss_latency_hist_seqr::samples         2974                      
system.ruby.LD.miss_latency_hist_seqr    |        2974    100.00%    100.00% |           0      0.00%    100.00% |           0      0.00%    100.00% |           0      0.00%    100.00% |           0      0.00%    100.00% |           0      0.00%    100.00% |           0      0.00%    100.00% |           0      0.00%    100.00% |           0      0.00%    100.00% |           0      0.00%    100.00%
system.ruby.LD.miss_latency_hist_seqr::total         2974                      
system.ruby.Locked_RMW_Read.hit_latency_hist_seqr::bucket_size            1                      
system.ruby.Locked_RMW_Read.hit_latency_hist_seqr::max_bucket            9                      
system.ruby.Locked_RMW_Read.hit_latency_hist_seqr::samples           14                      
system.ruby.Locked_RMW_Read.hit_latency_hist_seqr |          14    100.00%    100.00% |           0      0.00%    100.00% |           0      0.00%    100.00% |           0      0.00%    100.00% |           0      0.00%    100.00% |           0      0.00%    100.00% |           0      0.00%    100.00% |           0      0.00%    100.00% |           0      0.00%    100.00% |           0      0.00%    100.00%
system.ruby.Locked_RMW_Read.hit_latency_hist_seqr::total           14                      
system.ruby.Locked_RMW_Read.latency_hist_seqr::bucket_size            1                      
system.ruby.Locked_RMW_Read.latency_hist_seqr::max_bucket            9                      
system.ruby.Locked_RMW_Read.latency_hist_seqr::samples           16                      
system.ruby.Locked_RMW_Read.latency_hist_seqr |          16    100.00%    100.00% |           0      0.00%    100.00% |           0      0.00%    100.00% |           0      0.00%    100.00% |           0      0.00%    100.00% |           0      0.00%    100.00% |           0      0.00%    100.00% |           0      0.00%    100.00% |           0      0.00%    100.00% |           0      0.00%    100.00%
system.ruby.Locked_RMW_Read.latency_hist_seqr::total           16                      
system.ruby.Locked_RMW_Read.miss_latency_hist_seqr::bucket_size            1                      
system.ruby.Locked_RMW_Read.miss_latency_hist_seqr::max_bucket            9                      
system.ruby.Locked_RMW_Read.miss_latency_hist_seqr::samples            2                      
system.ruby.Locked_RMW_Read.miss_latency_hist_seqr |           2    100.00%    100.00% |           0      0.00%    100.00% |           0      0.00%    100.00% |           0      0.00%    100.00% |           0      0.00%    100.00% |           0      0.00%    100.00% |           0      0.00%    100.00% |           0      0.00%    100.00% |           0      0.00%    100.00% |           0      0.00%    100.00%
system.ruby.Locked_RMW_Read.miss_latency_hist_seqr::total            2                      
system.ruby.Locked_RMW_Write.hit_latency_hist_seqr::bucket_size            1                      
system.ruby.Locked_RMW_Write.hit_latency_hist_seqr::max_bucket            9                      
system.ruby.Locked_RMW_Write.hit_latency_hist_seqr::samples           16                      
system.ruby.Locked_RMW_Write.hit_latency_hist_seqr |          16    100.00%    100.00% |           0      0.00%    100.00% |           0      0.00%    100.00% |           0      0.00%    100.00% |           0      0.00%    100.00% |           0      0.00%    100.00% |           0      0.00%    100.00% |           0      0.00%    100.00% |           0      0.00%    100.00% |           0      0.00%    100.00%
system.ruby.Locked_RMW_Write.hit_latency_hist_seqr::total           16                      
system.ruby.Locked_RMW_Write.latency_hist_seqr::bucket_size            1                      
system.ruby.Locked_RMW_Write.latency_hist_seqr::max_bucket            9                      
system.ruby.Locked_RMW_Write.latency_hist_seqr::samples           16                      
system.ruby.Locked_RMW_Write.latency_hist_seqr |          16    100.00%    100.00% |           0      0.00%    100.00% |           0      0.00%    100.00% |           0      0.00%    100.00% |           0      0.00%    100.00% |           0      0.00%    100.00% |           0      0.00%    100.00% |           0      0.00%    100.00% |           0      0.00%    100.00% |           0      0.00%    100.00%
system.ruby.Locked_RMW_Write.latency_hist_seqr::total           16                      
system.ruby.RMW_Read.hit_latency_hist_seqr::bucket_size            1                      
system.ruby.RMW_Read.hit_latency_hist_seqr::max_bucket            9                      
system.ruby.RMW_Read.hit_latency_hist_seqr::samples          364                      
system.ruby.RMW_Read.hit_latency_hist_seqr |         364    100.00%    100.00% |           0      0.00%    100.00% |           0      0.00%    100.00% |           0      0.00%    100.00% |           0      0.00%    100.00% |           0      0.00%    100.00% |           0      0.00%    100.00% |           0      0.00%    100.00% |           0      0.00%    100.00% |           0      0.00%    100.00%
system.ruby.RMW_Read.hit_latency_hist_seqr::total          364                      
system.ruby.RMW_Read.latency_hist_seqr::bucket_size            1                      
system.ruby.RMW_Read.latency_hist_seqr::max_bucket            9                      
system.ruby.RMW_Read.latency_hist_seqr::samples          417                      
system.ruby.RMW_Read.latency_hist_seqr   |         417    100.00%    100.00% |           0      0.00%    100.00% |           0      0.00%    100.00% |           0      0.00%    100.00% |           0      0.00%    100.00% |           0      0.00%    100.00% |           0      0.00%    100.00% |           0      0.00%    100.00% |           0      0.00%    100.00% |           0      0.00%    100.00%
system.ruby.RMW_Read.latency_hist_seqr::total          417                      
system.ruby.RMW_Read.miss_latency_hist_seqr::bucket_size            1                      
system.ruby.RMW_Read.miss_latency_hist_seqr::max_bucket            9                      
system.ruby.RMW_Read.miss_latency_hist_seqr::samples           53                      
system.ruby.RMW_Read.miss_latency_hist_seqr |          53    100.00%    100.00% |           0      0.00%    100.00% |           0      0.00%    100.00% |           0      0.00%    100.00% |           0      0.00%    100.00% |           0      0.00%    100.00% |           0      0.00%    100.00% |           0      0.00%    100.00% |           0      0.00%    100.00% |           0      0.00%    100.00%
system.ruby.RMW_Read.miss_latency_hist_seqr::total           53                      
system.ruby.ST.hit_latency_hist_seqr::bucket_size            1                      
system.ruby.ST.hit_latency_hist_seqr::max_bucket            9                      
system.ruby.ST.hit_latency_hist_seqr::samples        56658                      
system.ruby.ST.hit_latency_hist_seqr     |       56658    100.00%    100.00% |           0      0.00%    100.00% |           0      0.00%    100.00% |           0      0.00%    100.00% |           0      0.00%    100.00% |           0      0.00%    100.00% |           0      0.00%    100.00% |           0      0.00%    100.00% |           0      0.00%    100.00% |           0      0.00%    100.00%
system.ruby.ST.hit_latency_hist_seqr::total        56658                      
system.ruby.ST.latency_hist_seqr::bucket_size            1                      
system.ruby.ST.latency_hist_seqr::max_bucket            9                      
system.ruby.ST.latency_hist_seqr::samples        57879                      
system.ruby.ST.latency_hist_seqr         |       57879    100.00%    100.00% |           0      0.00%    100.00% |           0      0.00%    100.00% |           0      0.00%    100.00% |           0      0.00%    100.00% |           0      0.00%    100.00% |           0      0.00%    100.00% |           0      0.00%    100.00% |           0      0.00%    100.00% |           0      0.00%    100.00%
system.ruby.ST.latency_hist_seqr::total         57879                      
system.ruby.ST.miss_latency_hist_seqr::bucket_size            1                      
system.ruby.ST.miss_latency_hist_seqr::max_bucket            9                      
system.ruby.ST.miss_latency_hist_seqr::samples         1221                      
system.ruby.ST.miss_latency_hist_seqr    |        1221    100.00%    100.00% |           0      0.00%    100.00% |           0      0.00%    100.00% |           0      0.00%    100.00% |           0      0.00%    100.00% |           0      0.00%    100.00% |           0      0.00%    100.00% |           0      0.00%    100.00% |           0      0.00%    100.00% |           0      0.00%    100.00%
system.ruby.ST.miss_latency_hist_seqr::total         1221                      
system.ruby.dir_cntrl0.fwdFrom.avg_buf_msgs     0.002595                       # Average number of messages in buffer
system.ruby.dir_cntrl0.fwdFrom.avg_stall_time  2935.090622                       # Average number of cycles messages are stalled in this MB
system.ruby.dir_cntrl0.reqTo.avg_buf_msgs     0.000977                       # Average number of messages in buffer
system.ruby.dir_cntrl0.reqTo.avg_stall_time  3014.879617                       # Average number of cycles messages are stalled in this MB
system.ruby.dir_cntrl0.requestToMemory.avg_buf_msgs     0.000624                       # Average number of messages in buffer
system.ruby.dir_cntrl0.requestToMemory.avg_stall_time   499.840449                       # Average number of cycles messages are stalled in this MB
system.ruby.dir_cntrl0.respFrom.avg_buf_msgs     0.003268                       # Average number of messages in buffer
system.ruby.dir_cntrl0.respFrom.avg_stall_time  2998.907812                       # Average number of cycles messages are stalled in this MB
system.ruby.dir_cntrl0.responseFromMemory.avg_buf_msgs     0.001067                       # Average number of messages in buffer
system.ruby.dir_cntrl0.responseFromMemory.avg_stall_time   499.819162                       # Average number of cycles messages are stalled in this MB
system.ruby.dir_cntrl1.fwdFrom.avg_buf_msgs     0.002724                       # Average number of messages in buffer
system.ruby.dir_cntrl1.fwdFrom.avg_stall_time  2934.613163                       # Average number of cycles messages are stalled in this MB
system.ruby.dir_cntrl1.reqTo.avg_buf_msgs     0.001020                       # Average number of messages in buffer
system.ruby.dir_cntrl1.reqTo.avg_stall_time  4024.393388                       # Average number of cycles messages are stalled in this MB
system.ruby.dir_cntrl1.requestToMemory.avg_buf_msgs     0.000651                       # Average number of messages in buffer
system.ruby.dir_cntrl1.requestToMemory.avg_stall_time   499.870887                       # Average number of cycles messages are stalled in this MB
system.ruby.dir_cntrl1.respFrom.avg_buf_msgs     0.003397                       # Average number of messages in buffer
system.ruby.dir_cntrl1.respFrom.avg_stall_time  2999.090440                       # Average number of cycles messages are stalled in this MB
system.ruby.dir_cntrl1.responseFromMemory.avg_buf_msgs     0.001115                       # Average number of messages in buffer
system.ruby.dir_cntrl1.responseFromMemory.avg_stall_time   499.849600                       # Average number of cycles messages are stalled in this MB
system.ruby.dir_cntrl2.fwdFrom.avg_buf_msgs     0.002616                       # Average number of messages in buffer
system.ruby.dir_cntrl2.fwdFrom.avg_stall_time  2973.945054                       # Average number of cycles messages are stalled in this MB
system.ruby.dir_cntrl2.reqTo.avg_buf_msgs     0.000984                       # Average number of messages in buffer
system.ruby.dir_cntrl2.reqTo.avg_stall_time  4023.142445                       # Average number of cycles messages are stalled in this MB
system.ruby.dir_cntrl2.requestToMemory.avg_buf_msgs     0.000625                       # Average number of messages in buffer
system.ruby.dir_cntrl2.requestToMemory.avg_stall_time   499.998011                       # Average number of cycles messages are stalled in this MB
system.ruby.dir_cntrl2.respFrom.avg_buf_msgs     0.003285                       # Average number of messages in buffer
system.ruby.dir_cntrl2.respFrom.avg_stall_time  2999.832889                       # Average number of cycles messages are stalled in this MB
system.ruby.dir_cntrl2.responseFromMemory.avg_buf_msgs     0.001068                       # Average number of messages in buffer
system.ruby.dir_cntrl2.responseFromMemory.avg_stall_time   499.973342                       # Average number of cycles messages are stalled in this MB
system.ruby.dir_cntrl3.fwdFrom.avg_buf_msgs     0.002600                       # Average number of messages in buffer
system.ruby.dir_cntrl3.fwdFrom.avg_stall_time  2973.567861                       # Average number of cycles messages are stalled in this MB
system.ruby.dir_cntrl3.reqTo.avg_buf_msgs     0.000979                       # Average number of messages in buffer
system.ruby.dir_cntrl3.reqTo.avg_stall_time  5022.649469                       # Average number of cycles messages are stalled in this MB
system.ruby.dir_cntrl3.requestToMemory.avg_buf_msgs     0.000624                       # Average number of messages in buffer
system.ruby.dir_cntrl3.requestToMemory.avg_stall_time   499.901325                       # Average number of cycles messages are stalled in this MB
system.ruby.dir_cntrl3.respFrom.avg_buf_msgs     0.003273                       # Average number of messages in buffer
system.ruby.dir_cntrl3.respFrom.avg_stall_time  2999.273068                       # Average number of cycles messages are stalled in this MB
system.ruby.dir_cntrl3.responseFromMemory.avg_buf_msgs     0.001074                       # Average number of messages in buffer
system.ruby.dir_cntrl3.responseFromMemory.avg_stall_time   499.880038                       # Average number of cycles messages are stalled in this MB
system.ruby.hit_latency_hist_seqr::bucket_size            1                      
system.ruby.hit_latency_hist_seqr::max_bucket            9                      
system.ruby.hit_latency_hist_seqr::samples       801845                      
system.ruby.hit_latency_hist_seqr        |      801845    100.00%    100.00% |           0      0.00%    100.00% |           0      0.00%    100.00% |           0      0.00%    100.00% |           0      0.00%    100.00% |           0      0.00%    100.00% |           0      0.00%    100.00% |           0      0.00%    100.00% |           0      0.00%    100.00% |           0      0.00%    100.00%
system.ruby.hit_latency_hist_seqr::total       801845                      
system.ruby.l1_cntrl0.cache.demand_accesses            0                       # Number of cache demand accesses
system.ruby.l1_cntrl0.cache.demand_hits             0                       # Number of cache demand hits
system.ruby.l1_cntrl0.cache.demand_misses            0                       # Number of cache demand misses
system.ruby.l1_cntrl0.fully_busy_cycles             7                       # cycles for which number of transistions == max transitions
system.ruby.l1_cntrl0.fwdFrom.avg_buf_msgs     0.001756                       # Average number of messages in buffer
system.ruby.l1_cntrl0.fwdFrom.avg_stall_time  6458.074114                       # Average number of cycles messages are stalled in this MB
system.ruby.l1_cntrl0.mandatoryQueue.avg_buf_msgs     0.375993                       # Average number of messages in buffer
system.ruby.l1_cntrl0.mandatoryQueue.avg_stall_time  4386.349198                       # Average number of cycles messages are stalled in this MB
system.ruby.l1_cntrl0.reqTo.avg_buf_msgs     0.003960                       # Average number of messages in buffer
system.ruby.l1_cntrl0.reqTo.avg_stall_time   499.999602                       # Average number of cycles messages are stalled in this MB
system.ruby.l1_cntrl0.respFrom.avg_buf_msgs     0.002204                       # Average number of messages in buffer
system.ruby.l1_cntrl0.respFrom.avg_stall_time 16492.006341                       # Average number of cycles messages are stalled in this MB
system.ruby.l1_cntrl1.cache.demand_accesses            0                       # Number of cache demand accesses
system.ruby.l1_cntrl1.cache.demand_hits             0                       # Number of cache demand hits
system.ruby.l1_cntrl1.cache.demand_misses            0                       # Number of cache demand misses
system.ruby.l1_cntrl2.cache.demand_accesses            0                       # Number of cache demand accesses
system.ruby.l1_cntrl2.cache.demand_hits             0                       # Number of cache demand hits
system.ruby.l1_cntrl2.cache.demand_misses            0                       # Number of cache demand misses
system.ruby.l1_cntrl3.cache.demand_accesses            0                       # Number of cache demand accesses
system.ruby.l1_cntrl3.cache.demand_hits             0                       # Number of cache demand hits
system.ruby.l1_cntrl3.cache.demand_misses            0                       # Number of cache demand misses
system.ruby.latency_hist_seqr::bucket_size           32                      
system.ruby.latency_hist_seqr::max_bucket          319                      
system.ruby.latency_hist_seqr::samples         807384                      
system.ruby.latency_hist_seqr::mean          0.000207                      
system.ruby.latency_hist_seqr::stdev         0.185856                      
system.ruby.latency_hist_seqr            |      807383    100.00%    100.00% |           0      0.00%    100.00% |           0      0.00%    100.00% |           0      0.00%    100.00% |           0      0.00%    100.00% |           1      0.00%    100.00% |           0      0.00%    100.00% |           0      0.00%    100.00% |           0      0.00%    100.00% |           0      0.00%    100.00%
system.ruby.latency_hist_seqr::total           807384                      
system.ruby.miss_latency_hist_seqr::bucket_size           32                      
system.ruby.miss_latency_hist_seqr::max_bucket          319                      
system.ruby.miss_latency_hist_seqr::samples         5539                      
system.ruby.miss_latency_hist_seqr::mean     0.030150                      
system.ruby.miss_latency_hist_seqr::stdev     2.243886                      
system.ruby.miss_latency_hist_seqr       |        5538     99.98%     99.98% |           0      0.00%     99.98% |           0      0.00%     99.98% |           0      0.00%     99.98% |           0      0.00%     99.98% |           1      0.02%    100.00% |           0      0.00%    100.00% |           0      0.00%    100.00% |           0      0.00%    100.00% |           0      0.00%    100.00%
system.ruby.miss_latency_hist_seqr::total         5539                      
system.ruby.network.average_flit_latency    16.551241                      
system.ruby.network.average_flit_network_latency    12.005433                      
system.ruby.network.average_flit_queueing_latency     4.545808                      
system.ruby.network.average_flit_vnet_latency |   15.000867                       |    5.000906                       |    8.052855                       |         nan                       |         nan                       |         nan                       |         nan                       |         nan                      
system.ruby.network.average_flit_vqueue_latency |           6                       |           6                       |           1                       |         nan                       |         nan                       |         nan                       |         nan                       |         nan                      
system.ruby.network.average_hops             1.000265                      
system.ruby.network.average_packet_latency    14.874447                      
system.ruby.network.average_packet_network_latency    11.374447                      
system.ruby.network.average_packet_queueing_latency     3.500000                      
system.ruby.network.average_packet_vnet_latency |   25.000903                       |    5.000906                       |    6.616559                       |         nan                       |         nan                       |         nan                       |         nan                       |         nan                      
system.ruby.network.average_packet_vqueue_latency |           6                       |           6                       |           1                       |         nan                       |         nan                       |         nan                       |         nan                       |         nan                      
system.ruby.network.avg_link_utilization     0.054048                      
system.ruby.network.avg_vc_load          |    0.024796     45.88%     45.88% |    0.002759      5.11%     50.98% |    0.002755      5.10%     56.08% |    0.002751      5.09%     61.17% |    0.003952      7.31%     68.48% |    0.000439      0.81%     69.30% |    0.000439      0.81%     70.11% |    0.000438      0.81%     70.92% |    0.011862     21.95%     92.87% |    0.001257      2.33%     95.19% |    0.001353      2.50%     97.69% |    0.001246      2.31%    100.00% |           0      0.00%    100.00% |           0      0.00%    100.00% |           0      0.00%    100.00% |           0      0.00%    100.00% |           0      0.00%    100.00% |           0      0.00%    100.00% |           0      0.00%    100.00% |           0      0.00%    100.00% |           0      0.00%    100.00% |           0      0.00%    100.00% |           0      0.00%    100.00% |           0      0.00%    100.00% |           0      0.00%    100.00% |           0      0.00%    100.00% |           0      0.00%    100.00% |           0      0.00%    100.00% |           0      0.00%    100.00% |           0      0.00%    100.00% |           0      0.00%    100.00% |           0      0.00%    100.00%
system.ruby.network.avg_vc_load::total       0.054048                      
system.ruby.network.ext_in_link_utilization        45276                      
system.ruby.network.ext_out_link_utilization        45276                      
system.ruby.network.flit_network_latency |      415449                       |       22069                       |      106040                       |           0                       |           0                       |           0                       |           0                       |           0                      
system.ruby.network.flit_queueing_latency |      166170                       |       26478                       |       13168                       |           0                       |           0                       |           0                       |           0                       |           0                      
system.ruby.network.flits_injected       |       27695     61.17%     61.17% |        4413      9.75%     70.92% |       13168     29.08%    100.00% |           0      0.00%    100.00% |           0      0.00%    100.00% |           0      0.00%    100.00% |           0      0.00%    100.00% |           0      0.00%    100.00%
system.ruby.network.flits_injected::total        45276                      
system.ruby.network.flits_received       |       27695     61.17%     61.17% |        4413      9.75%     70.92% |       13168     29.08%    100.00% |           0      0.00%    100.00% |           0      0.00%    100.00% |           0      0.00%    100.00% |           0      0.00%    100.00% |           0      0.00%    100.00%
system.ruby.network.flits_received::total        45276                      
system.ruby.network.int_link_utilization        45288                      
system.ruby.network.packet_network_latency |      138480                       |       22069                       |       65848                       |           0                       |           0                       |           0                       |           0                       |           0                      
system.ruby.network.packet_queueing_latency |       33234                       |       26478                       |        9952                       |           0                       |           0                       |           0                       |           0                       |           0                      
system.ruby.network.packets_injected     |        5539     27.83%     27.83% |        4413     22.17%     50.00% |        9952     50.00%    100.00% |           0      0.00%    100.00% |           0      0.00%    100.00% |           0      0.00%    100.00% |           0      0.00%    100.00% |           0      0.00%    100.00%
system.ruby.network.packets_injected::total        19904                      
[...]
system.mem_ctrls1.rdQLenPdf::31                     0                       # What read queue length does an incoming req see
system.mem_ctrls1.wrQLenPdf::0                      1                       # What write queue length does an incoming req see
system.mem_ctrls1.wrQLenPdf::1                      1                       # What write queue length does an incoming req see
system.mem_ctrls1.wrQLenPdf::2                      1                       # What write queue length does an incoming req see
system.mem_ctrls1.wrQLenPdf::3                      1                       # What write queue length does an incoming req see
system.mem_ctrls1.wrQLenPdf::4                      1                       # What write queue length does an incoming req see
system.mem_ctrls1.wrQLenPdf::5                      1                       # What write queue length does an incoming req see
system.mem_ctrls1.wrQLenPdf::6                      1                       # What write queue length does an incoming req see
system.mem_ctrls1.wrQLenPdf::7                      1                       # What write queue length does an incoming req see
system.mem_ctrls1.wrQLenPdf::8                      1                       # What write queue length does an incoming req see
system.mem_ctrls1.wrQLenPdf::9                      1                       # What write queue length does an incoming req see
system.mem_ctrls1.wrQLenPdf::10                     1                       # What write queue length does an incoming req see
system.mem_ctrls1.wrQLenPdf::11                     1                       # What write queue length does an incoming req see
system.mem_ctrls1.wrQLenPdf::12                     1                       # What write queue length does an incoming req see
system.mem_ctrls1.wrQLenPdf::13                     1                       # What write queue length does an incoming req see
system.mem_ctrls1.wrQLenPdf::14                     1                       # What write queue length does an incoming req see
system.mem_ctrls1.wrQLenPdf::15                     1                       # What write queue length does an incoming req see
system.mem_ctrls1.wrQLenPdf::16                     1                       # What write queue length does an incoming req see
system.mem_ctrls1.wrQLenPdf::17                    12                       # What write queue length does an incoming req see
system.mem_ctrls1.wrQLenPdf::18                    12                       # What write queue length does an incoming req see
system.mem_ctrls1.wrQLenPdf::19                    12                       # What write queue length does an incoming req see
system.mem_ctrls1.wrQLenPdf::20                    12                       # What write queue length does an incoming req see
system.mem_ctrls1.wrQLenPdf::21                    12                       # What write queue length does an incoming req see
system.mem_ctrls1.wrQLenPdf::22                    12                       # What write queue length does an incoming req see
system.mem_ctrls1.wrQLenPdf::23                    12                       # What write queue length does an incoming req see
system.mem_ctrls1.wrQLenPdf::24                    12                       # What write queue length does an incoming req see
system.mem_ctrls1.wrQLenPdf::25                    12                       # What write queue length does an incoming req see
system.mem_ctrls1.wrQLenPdf::26                    12                       # What write queue length does an incoming req see
system.mem_ctrls1.wrQLenPdf::27                    12                       # What write queue length does an incoming req see
system.mem_ctrls1.wrQLenPdf::28                    12                       # What write queue length does an incoming req see
system.mem_ctrls1.wrQLenPdf::29                    12                       # What write queue length does an incoming req see
system.mem_ctrls1.wrQLenPdf::30                    12                       # What write queue length does an incoming req see
system.mem_ctrls1.wrQLenPdf::31                    11                       # What write queue length does an incoming req see
system.mem_ctrls1.wrQLenPdf::32                    11                       # What write queue length does an incoming req see
system.mem_ctrls1.wrQLenPdf::33                     0                       # What write queue length does an incoming req see
system.mem_ctrls1.wrQLenPdf::34                     0                       # What write queue length does an incoming req see
system.mem_ctrls1.wrQLenPdf::35                     0                       # What write queue length does an incoming req see
system.mem_ctrls1.wrQLenPdf::36                     0                       # What write queue length does an incoming req see
system.mem_ctrls1.wrQLenPdf::37                     0                       # What write queue length does an incoming req see
system.mem_ctrls1.wrQLenPdf::38                     0                       # What write queue length does an incoming req see
system.mem_ctrls1.wrQLenPdf::39                     0                       # What write queue length does an incoming req see
system.mem_ctrls1.wrQLenPdf::40                     0                       # What write queue length does an incoming req see
system.mem_ctrls1.wrQLenPdf::41                     0                       # What write queue length does an incoming req see
system.mem_ctrls1.wrQLenPdf::42                     0                       # What write queue length does an incoming req see
system.mem_ctrls1.wrQLenPdf::43                     0                       # What write queue length does an incoming req see
system.mem_ctrls1.wrQLenPdf::44                     0                       # What write queue length does an incoming req see
system.mem_ctrls1.wrQLenPdf::45                     0                       # What write queue length does an incoming req see
system.mem_ctrls1.wrQLenPdf::46                     0                       # What write queue length does an incoming req see
system.mem_ctrls1.wrQLenPdf::47                     0                       # What write queue length does an incoming req see
system.mem_ctrls1.wrQLenPdf::48                     0                       # What write queue length does an incoming req see
system.mem_ctrls1.wrQLenPdf::49                     0                       # What write queue length does an incoming req see
system.mem_ctrls1.wrQLenPdf::50                     0                       # What write queue length does an incoming req see
system.mem_ctrls1.wrQLenPdf::51                     0                       # What write queue length does an incoming req see
system.mem_ctrls1.wrQLenPdf::52                     0                       # What write queue length does an incoming req see
system.mem_ctrls1.wrQLenPdf::53                     0                       # What write queue length does an incoming req see
system.mem_ctrls1.wrQLenPdf::54                     0                       # What write queue length does an incoming req see
system.mem_ctrls1.wrQLenPdf::55                     0                       # What write queue length does an incoming req see
system.mem_ctrls1.wrQLenPdf::56                     0                       # What write queue length does an incoming req see
system.mem_ctrls1.wrQLenPdf::57                     0                       # What write queue length does an incoming req see
system.mem_ctrls1.wrQLenPdf::58                     0                       # What write queue length does an incoming req see
system.mem_ctrls1.wrQLenPdf::59                     0                       # What write queue length does an incoming req see
system.mem_ctrls1.wrQLenPdf::60                     0                       # What write queue length does an incoming req see
system.mem_ctrls1.wrQLenPdf::61                     0                       # What write queue length does an incoming req see
system.mem_ctrls1.wrQLenPdf::62                     0                       # What write queue length does an incoming req see
system.mem_ctrls1.wrQLenPdf::63                     0                       # What write queue length does an incoming req see
system.mem_ctrls1.bytesPerActivate::samples          520                       # Bytes accessed per row activation
system.mem_ctrls1.bytesPerActivate::mean   191.507692                       # Bytes accessed per row activation
system.mem_ctrls1.bytesPerActivate::gmean   133.705000                       # Bytes accessed per row activation
system.mem_ctrls1.bytesPerActivate::stdev   198.804917                       # Bytes accessed per row activation
system.mem_ctrls1.bytesPerActivate::0-127          213     40.96%     40.96% # Bytes accessed per row activation
system.mem_ctrls1.bytesPerActivate::128-255          186     35.77%     76.73% # Bytes accessed per row activation
system.mem_ctrls1.bytesPerActivate::256-383           46      8.85%     85.58% # Bytes accessed per row activation
system.mem_ctrls1.bytesPerActivate::384-511           22      4.23%     89.81% # Bytes accessed per row activation
system.mem_ctrls1.bytesPerActivate::512-639           17      3.27%     93.08% # Bytes accessed per row activation
system.mem_ctrls1.bytesPerActivate::640-767           22      4.23%     97.31% # Bytes accessed per row activation
system.mem_ctrls1.bytesPerActivate::768-895            4      0.77%     98.08% # Bytes accessed per row activation
system.mem_ctrls1.bytesPerActivate::896-1023            2      0.38%     98.46% # Bytes accessed per row activation
system.mem_ctrls1.bytesPerActivate::1024-1151            8      1.54%    100.00% # Bytes accessed per row activation
system.mem_ctrls1.bytesPerActivate::total          520                       # Bytes accessed per row activation
system.mem_ctrls1.rdPerTurnAround::samples           11                       # Reads before turning the bus around for writes
system.mem_ctrls1.rdPerTurnAround::mean    114.363636                       # Reads before turning the bus around for writes
system.mem_ctrls1.rdPerTurnAround::gmean    90.540853                       # Reads before turning the bus around for writes
system.mem_ctrls1.rdPerTurnAround::stdev    99.377334                       # Reads before turning the bus around for writes
system.mem_ctrls1.rdPerTurnAround::32-47            1      9.09%      9.09% # Reads before turning the bus around for writes
system.mem_ctrls1.rdPerTurnAround::48-63            4     36.36%     45.45% # Reads before turning the bus around for writes
system.mem_ctrls1.rdPerTurnAround::64-79            2     18.18%     63.64% # Reads before turning the bus around for writes
system.mem_ctrls1.rdPerTurnAround::96-111            1      9.09%     72.73% # Reads before turning the bus around for writes
system.mem_ctrls1.rdPerTurnAround::128-143            1      9.09%     81.82% # Reads before turning the bus around for writes
system.mem_ctrls1.rdPerTurnAround::192-207            1      9.09%     90.91% # Reads before turning the bus around for writes
system.mem_ctrls1.rdPerTurnAround::368-383            1      9.09%    100.00% # Reads before turning the bus around for writes
system.mem_ctrls1.rdPerTurnAround::total           11                       # Reads before turning the bus around for writes
system.mem_ctrls1.wrPerTurnAround::samples           11                       # Writes before turning the bus around for reads
system.mem_ctrls1.wrPerTurnAround::mean            16                       # Writes before turning the bus around for reads
system.mem_ctrls1.wrPerTurnAround::gmean    16.000000                       # Writes before turning the bus around for reads
system.mem_ctrls1.wrPerTurnAround::16              11    100.00%    100.00% # Writes before turning the bus around for reads
system.mem_ctrls1.wrPerTurnAround::total           11                       # Writes before turning the bus around for reads
system.mem_ctrls1.bytesReadDRAM                 88320                       # Total number of bytes read from DRAM
system.mem_ctrls1.bytesReadWrQ                   2752                       # Total number of bytes read from write queue
system.mem_ctrls1.bytesWritten                  11264                       # Total number of bytes written to DRAM
system.mem_ctrls1.bytesReadSys                  91072                       # Total read bytes from the system interface side
system.mem_ctrls1.bytesWrittenSys               13632                       # Total written bytes from the system interface side
system.mem_ctrls1.avgRdBW                       70.28                       # Average DRAM read bandwidth in MiByte/s
system.mem_ctrls1.avgWrBW                        8.96                       # Average achieved write bandwidth in MiByte/s
system.mem_ctrls1.avgRdBWSys                    72.47                       # Average system read bandwidth in MiByte/s
system.mem_ctrls1.avgWrBWSys                    10.85                       # Average system write bandwidth in MiByte/s
system.mem_ctrls1.peakBW                     12800.00                       # Theoretical peak bandwidth in MiByte/s
system.mem_ctrls1.busUtil                        0.62                       # Data bus utilization in percentage
system.mem_ctrls1.busUtilRead                    0.55                       # Data bus utilization in percentage for reads
system.mem_ctrls1.busUtilWrite                   0.07                       # Data bus utilization in percentage for writes
system.mem_ctrls1.totGap                   1253050500                       # Total gap between requests
system.mem_ctrls1.avgGap                    765923.29                       # Average gap between requests
system.mem_ctrls1.masterReadBytes::.ruby.dir_cntrl1        88320                       # Per-master bytes read from memory
system.mem_ctrls1.masterWriteBytes::.ruby.dir_cntrl1        11264                       # Per-master bytes write to memory
system.mem_ctrls1.masterReadRate::.ruby.dir_cntrl1 70281987.320052012801                       # Per-master bytes read from memory rate (Bytes/sec)
system.mem_ctrls1.masterWriteRate::.ruby.dir_cntrl1 8963499.832122577354                       # Per-master bytes write to memory rate (Bytes/sec)
system.mem_ctrls1.masterReadAccesses::.ruby.dir_cntrl1         1423                       # Per-master read serviced memory accesses
system.mem_ctrls1.masterWriteAccesses::.ruby.dir_cntrl1          213                       # Per-master write serviced memory accesses
system.mem_ctrls1.masterReadTotalLat::.ruby.dir_cntrl1     37817728                       # Per-master read total memory access latency
system.mem_ctrls1.masterWriteTotalLat::.ruby.dir_cntrl1  14568635000                       # Per-master write total memory access latency
system.mem_ctrls1.masterReadAvgLat::.ruby.dir_cntrl1     26576.06                       # Per-master read average memory access latency
system.mem_ctrls1.masterWriteAvgLat::.ruby.dir_cntrl1  68397347.42                       # Per-master write average memory access latency
system.mem_ctrls1.pageHitRate                   65.28                       # Row buffer hit rate, read and write combined
system.mem_ctrls1.rank1.actEnergy             2220540                       # Energy for activate commands per rank (pJ)
system.mem_ctrls1.rank1.preEnergy             1180245                       # Energy for precharge commands per rank (pJ)
system.mem_ctrls1.rank1.readEnergy            6440280                       # Energy for read commands per rank (pJ)
system.mem_ctrls1.rank1.writeEnergy            600300                       # Energy for write commands per rank (pJ)
system.mem_ctrls1.rank1.refreshEnergy    98957040.000000                       # Energy for refresh commands per rank (pJ)
system.mem_ctrls1.rank1.actBackEnergy       453306750                       # Energy for active background per rank (pJ)
system.mem_ctrls1.rank1.preBackEnergy       100822560                       # Energy for precharge background per rank (pJ)
system.mem_ctrls1.rank1.actPowerDownEnergy            0                       # Energy for active power-down per rank (pJ)
system.mem_ctrls1.rank1.prePowerDownEnergy            0                       # Energy for precharge power-down per rank (pJ)
system.mem_ctrls1.rank1.selfRefreshEnergy            0                       # Energy for self refresh per rank (pJ)
system.mem_ctrls1.rank1.totalEnergy         663527715                       # Total energy per rank (pJ)
system.mem_ctrls1.rank1.averagePower       528.012301                       # Core power per rank (mW)
system.mem_ctrls1.rank1.totalIdleTime               0                       # Total Idle time Per DRAM Rank
system.mem_ctrls1.rank1.memoryStateTime::IDLE    258026891                       # Time in different power states
system.mem_ctrls1.rank1.memoryStateTime::REF     41860000                       # Time in different power states
system.mem_ctrls1.rank1.memoryStateTime::SREF            0                       # Time in different power states
system.mem_ctrls1.rank1.memoryStateTime::PRE_PDN            0                       # Time in different power states
system.mem_ctrls1.rank1.memoryStateTime::ACT    956765110                       # Time in different power states
system.mem_ctrls1.rank1.memoryStateTime::ACT_PDN            0                       # Time in different power states
system.mem_ctrls1.rank0.actEnergy             1492260                       # Energy for activate commands per rank (pJ)
system.mem_ctrls1.rank0.preEnergy              793155                       # Energy for precharge commands per rank (pJ)
system.mem_ctrls1.rank0.readEnergy            3412920                       # Energy for read commands per rank (pJ)
system.mem_ctrls1.rank0.writeEnergy            318420                       # Energy for write commands per rank (pJ)
system.mem_ctrls1.rank0.refreshEnergy    98957040.000000                       # Energy for refresh commands per rank (pJ)
system.mem_ctrls1.rank0.actBackEnergy       198318960                       # Energy for active background per rank (pJ)
system.mem_ctrls1.rank0.preBackEnergy       315549120                       # Energy for precharge background per rank (pJ)
system.mem_ctrls1.rank0.actPowerDownEnergy            0                       # Energy for active power-down per rank (pJ)
system.mem_ctrls1.rank0.prePowerDownEnergy            0                       # Energy for precharge power-down per rank (pJ)
system.mem_ctrls1.rank0.selfRefreshEnergy            0                       # Energy for self refresh per rank (pJ)
system.mem_ctrls1.rank0.totalEnergy         618841875                       # Total energy per rank (pJ)
system.mem_ctrls1.rank0.averagePower       492.452862                       # Core power per rank (mW)
system.mem_ctrls1.rank0.totalIdleTime               0                       # Total Idle time Per DRAM Rank
system.mem_ctrls1.rank0.memoryStateTime::IDLE    818532059                       # Time in different power states
system.mem_ctrls1.rank0.memoryStateTime::REF     41860000                       # Time in different power states
system.mem_ctrls1.rank0.memoryStateTime::SREF            0                       # Time in different power states
system.mem_ctrls1.rank0.memoryStateTime::PRE_PDN            0                       # Time in different power states
system.mem_ctrls1.rank0.memoryStateTime::ACT    396259942                       # Time in different power states
system.mem_ctrls1.rank0.memoryStateTime::ACT_PDN            0                       # Time in different power states
system.mem_ctrls1.power_state.pwrStateResidencyTicks::UNDEFINED   1256652001                       # Cumulative time (in ticks) in various power states
system.cpu_voltage_domain.voltage                   1                       # Voltage in Volts

---------- End Simulation Statistics   ----------
