
---------- Begin Simulation Statistics ----------
final_tick                               106637883438001                       # Number of ticks from beginning of simulation (restored from checkpoints and never reset)
host_inst_rate                                7836097                       # Simulator instruction rate (inst/s)
host_mem_usage                                1995280                       # Number of bytes of host memory used
host_op_rate                                  7967318                       # Simulator op (including micro ops) rate (op/s)
host_seconds                                   646.52                       # Real time elapsed on the host
host_tick_rate                             7852621653                       # Simulator tick rate (ticks/s)
sim_freq                                 1000000000000                       # Frequency of simulated ticks
sim_insts                                  5066157202                       # Number of instructions simulated
sim_ops                                    5150995118                       # Number of ops (including micro ops) simulated
sim_seconds                                  5.076842                       # Number of seconds simulated
sim_ticks                                5076842318501                       # Number of ticks simulated
system.cpu0.committedInsts                          0                       # Number of instructions committed
system.cpu0.dtb.rdAccesses                          0                       # TLB accesses on read requests
system.cpu0.dtb.rdMisses                            0                       # TLB misses on read requests
system.cpu0.dtb.wrAccesses                          0                       # TLB accesses on write requests
system.cpu0.dtb.wrMisses                            0                       # TLB misses on write requests
system.cpu0.itb.rdAccesses                          0                       # TLB accesses on read requests
system.cpu0.itb.rdMisses                            0                       # TLB misses on read requests
system.cpu0.itb.wrAccesses                          0                       # TLB accesses on write requests
system.cpu0.itb.wrMisses                            0                       # TLB misses on write requests
system.cpu0.kern.inst.arm                           0                       # number of arm instructions executed
system.cpu0.kern.inst.quiesce                       0                       # number of quiesce instructions executed
system.cpu0.numCoalescedMMIO                        0                       # number of coalesced memory mapped IO requests
system.cpu0.numCycles                               0                       # number of cpu cycles simulated
system.cpu0.numExitSignal                           0                       # exits due to signal delivery
system.cpu0.numHalt                                 0                       # number of VM exits due to wait for interrupt instructions
system.cpu0.numHypercalls                           0                       # number of hypercalls
system.cpu0.numIO                                   0                       # number of VM exits due to legacy IO
system.cpu0.numInterrupts                           0                       # number of interrupts delivered
system.cpu0.numMMIO                                 0                       # number of VM exits due to memory mapped IO
system.cpu0.numVMExits                              0                       # total number of KVM exits
system.cpu0.numVMHalfEntries                        0                       # number of KVM entries to finalize pending operations
system.cpu0.numWorkItemsCompleted                   0                       # number of work items this cpu completed
system.cpu0.numWorkItemsStarted                     0                       # number of work items this cpu started
system.cpu1.committedInsts                          0                       # Number of instructions committed
system.cpu1.dtb.rdAccesses                          0                       # TLB accesses on read requests
system.cpu1.dtb.rdMisses                            0                       # TLB misses on read requests
system.cpu1.dtb.wrAccesses                          0                       # TLB accesses on write requests
system.cpu1.dtb.wrMisses                            0                       # TLB misses on write requests
system.cpu1.itb.rdAccesses                          0                       # TLB accesses on read requests
system.cpu1.itb.rdMisses                            0                       # TLB misses on read requests
system.cpu1.itb.wrAccesses                          0                       # TLB accesses on write requests
system.cpu1.itb.wrMisses                            0                       # TLB misses on write requests
system.cpu1.kern.inst.arm                           0                       # number of arm instructions executed
system.cpu1.kern.inst.quiesce                       0                       # number of quiesce instructions executed
system.cpu1.numCoalescedMMIO                        0                       # number of coalesced memory mapped IO requests
system.cpu1.numCycles                               0                       # number of cpu cycles simulated
system.cpu1.numExitSignal                           0                       # exits due to signal delivery
system.cpu1.numHalt                                 0                       # number of VM exits due to wait for interrupt instructions
system.cpu1.numHypercalls                           0                       # number of hypercalls
system.cpu1.numIO                                   0                       # number of VM exits due to legacy IO
system.cpu1.numInterrupts                           0                       # number of interrupts delivered
system.cpu1.numMMIO                                 0                       # number of VM exits due to memory mapped IO
system.cpu1.numVMExits                              0                       # total number of KVM exits
system.cpu1.numVMHalfEntries                        0                       # number of KVM entries to finalize pending operations
system.cpu1.numWorkItemsCompleted                   0                       # number of work items this cpu completed
system.cpu1.numWorkItemsStarted                     0                       # number of work items this cpu started
system.cpu2.committedInsts                          0                       # Number of instructions committed
system.cpu2.dtb.rdAccesses                          0                       # TLB accesses on read requests
system.cpu2.dtb.rdMisses                            0                       # TLB misses on read requests
system.cpu2.dtb.wrAccesses                          0                       # TLB accesses on write requests
system.cpu2.dtb.wrMisses                            0                       # TLB misses on write requests
system.cpu2.itb.rdAccesses                          0                       # TLB accesses on read requests
system.cpu2.itb.rdMisses                            0                       # TLB misses on read requests
system.cpu2.itb.wrAccesses                          0                       # TLB accesses on write requests
system.cpu2.itb.wrMisses                            0                       # TLB misses on write requests
system.cpu2.kern.inst.arm                           0                       # number of arm instructions executed
system.cpu2.kern.inst.quiesce                       0                       # number of quiesce instructions executed
system.cpu2.numCoalescedMMIO                        0                       # number of coalesced memory mapped IO requests
system.cpu2.numCycles                               0                       # number of cpu cycles simulated
system.cpu2.numExitSignal                           0                       # exits due to signal delivery
system.cpu2.numHalt                                 0                       # number of VM exits due to wait for interrupt instructions
system.cpu2.numHypercalls                           0                       # number of hypercalls
system.cpu2.numIO                                   0                       # number of VM exits due to legacy IO
system.cpu2.numInterrupts                           0                       # number of interrupts delivered
system.cpu2.numMMIO                                 0                       # number of VM exits due to memory mapped IO
system.cpu2.numVMExits                              0                       # total number of KVM exits
system.cpu2.numVMHalfEntries                        0                       # number of KVM entries to finalize pending operations
system.cpu2.numWorkItemsCompleted                   0                       # number of work items this cpu completed
system.cpu2.numWorkItemsStarted                     0                       # number of work items this cpu started
system.cpu3.committedInsts                          0                       # Number of instructions committed
system.cpu3.dtb.rdAccesses                          0                       # TLB accesses on read requests
system.cpu3.dtb.rdMisses                            0                       # TLB misses on read requests
system.cpu3.dtb.wrAccesses                          0                       # TLB accesses on write requests
system.cpu3.dtb.wrMisses                            0                       # TLB misses on write requests
system.cpu3.itb.rdAccesses                          0                       # TLB accesses on read requests
system.cpu3.itb.rdMisses                            0                       # TLB misses on read requests
system.cpu3.itb.wrAccesses                          0                       # TLB accesses on write requests
system.cpu3.itb.wrMisses                            0                       # TLB misses on write requests
system.cpu3.kern.inst.arm                           0                       # number of arm instructions executed
system.cpu3.kern.inst.quiesce                       0                       # number of quiesce instructions executed
system.cpu3.numCoalescedMMIO                        0                       # number of coalesced memory mapped IO requests
system.cpu3.numCycles                               0                       # number of cpu cycles simulated
system.cpu3.numExitSignal                           0                       # exits due to signal delivery
system.cpu3.numHalt                                 0                       # number of VM exits due to wait for interrupt instructions
system.cpu3.numHypercalls                           0                       # number of hypercalls
system.cpu3.numIO                                   0                       # number of VM exits due to legacy IO
system.cpu3.numInterrupts                           0                       # number of interrupts delivered
system.cpu3.numMMIO                                 0                       # number of VM exits due to memory mapped IO
system.cpu3.numVMExits                              0                       # total number of KVM exits
system.cpu3.numVMHalfEntries                        0                       # number of KVM entries to finalize pending operations
system.cpu3.numWorkItemsCompleted                   0                       # number of work items this cpu completed
system.cpu3.numWorkItemsStarted                     0                       # number of work items this cpu started
system.pc.south_bridge.ide.disks.dma_read_bytes       258048                       # Number of bytes transfered via DMA reads (not PRD).
system.pc.south_bridge.ide.disks.dma_read_full_pages           63                       # Number of full page size DMA reads (not PRD).
system.pc.south_bridge.ide.disks.dma_read_txs           63                       # Number of DMA read transactions (not PRD).
system.pc.south_bridge.ide.disks.dma_write_bytes       110592                       # Number of bytes transfered via DMA writes.
system.pc.south_bridge.ide.disks.dma_write_full_pages           27                       # Number of full page size DMA writes.
system.pc.south_bridge.ide.disks.dma_write_txs           27                       # Number of DMA write transactions.
system.ruby.DMA_Controller.I.allocI_load |        4047    100.00%    100.00% |           0      0.00%    100.00%
system.ruby.DMA_Controller.I.allocI_load::total         4047                      
system.ruby.DMA_Controller.I.allocI_store |        1728    100.00%    100.00% |           0      0.00%    100.00%
system.ruby.DMA_Controller.I.allocI_store::total         1728                      
system.ruby.DMA_Controller.I.deallocnet0from_in |        1371    100.00%    100.00% |           0      0.00%    100.00%
system.ruby.DMA_Controller.I.deallocnet0from_in::total         1371                      
system.ruby.DMA_Controller.I.deallocnet2from_in |        3380    100.00%    100.00% |           0      0.00%    100.00%
system.ruby.DMA_Controller.I.deallocnet2from_in::total         3380                      
system.ruby.DMA_Controller.M.allocTBE    |        1728    100.00%    100.00% |           0      0.00%    100.00%
system.ruby.DMA_Controller.M.allocTBE::total         1728                      
system.ruby.DMA_Controller.M.externalstoreMnet1from_in |        1728    100.00%    100.00% |           0      0.00%    100.00%
system.ruby.DMA_Controller.M.externalstoreMnet1from_in::total         1728                      
system.ruby.DMA_Controller.M_evict.Stallmandatory_in |       19953    100.00%    100.00% |           0      0.00%    100.00%
system.ruby.DMA_Controller.M_evict.Stallmandatory_in::total        19953                      
system.ruby.DMA_Controller.S.SloadSEvent |          63    100.00%    100.00% |           0      0.00%    100.00%
system.ruby.DMA_Controller.S.SloadSEvent::total           63                      
system.ruby.DMA_Controller.S.allocTBE    |        3382    100.00%    100.00% |           0      0.00%    100.00%
system.ruby.DMA_Controller.S.allocTBE::total         3382                      
system.ruby.DMA_Controller.S.deallocTBE  |         357    100.00%    100.00% |           0      0.00%    100.00%
system.ruby.DMA_Controller.S.deallocTBE::total          357                      
system.ruby.DMA_Controller.S.externalloadSnet0from_in |        4027    100.00%    100.00% |           0      0.00%    100.00%
system.ruby.DMA_Controller.S.externalloadSnet0from_in::total         4027                      
system.ruby.DMA_Controller.S.externalloadSrespfrom_in |          20    100.00%    100.00% |           0      0.00%    100.00%
system.ruby.DMA_Controller.S.externalloadSrespfrom_in::total           20                      
system.ruby.DMA_Controller.S_evict.Stallmandatory_in |       10266    100.00%    100.00% |           0      0.00%    100.00%
system.ruby.DMA_Controller.S_evict.Stallmandatory_in::total        10266                      
system.ruby.DMA_Controller.SloadSEvent   |          63    100.00%    100.00% |           0      0.00%    100.00%
system.ruby.DMA_Controller.SloadSEvent::total           63                      
system.ruby.DMA_Controller.Stallmandatory_in |       30219    100.00%    100.00% |           0      0.00%    100.00%
system.ruby.DMA_Controller.Stallmandatory_in::total        30219                      
system.ruby.DMA_Controller.allocI_load   |        4047    100.00%    100.00% |           0      0.00%    100.00%
system.ruby.DMA_Controller.allocI_load::total         4047                      
system.ruby.DMA_Controller.allocI_store  |        1728    100.00%    100.00% |           0      0.00%    100.00%
system.ruby.DMA_Controller.allocI_store::total         1728                      
system.ruby.DMA_Controller.allocTBE      |        5110    100.00%    100.00% |           0      0.00%    100.00%
system.ruby.DMA_Controller.allocTBE::total         5110                      
system.ruby.DMA_Controller.deallocTBE    |         357    100.00%    100.00% |           0      0.00%    100.00%
system.ruby.DMA_Controller.deallocTBE::total          357                      
system.ruby.DMA_Controller.deallocnet0from_in |        1371    100.00%    100.00% |           0      0.00%    100.00%
system.ruby.DMA_Controller.deallocnet0from_in::total         1371                      
system.ruby.DMA_Controller.deallocnet2from_in |        3380    100.00%    100.00% |           0      0.00%    100.00%
system.ruby.DMA_Controller.deallocnet2from_in::total         3380                      
system.ruby.DMA_Controller.externalloadSnet0from_in |        4027    100.00%    100.00% |           0      0.00%    100.00%
system.ruby.DMA_Controller.externalloadSnet0from_in::total         4027                      
system.ruby.DMA_Controller.externalloadSrespfrom_in |          20    100.00%    100.00% |           0      0.00%    100.00%
system.ruby.DMA_Controller.externalloadSrespfrom_in::total           20                      
system.ruby.DMA_Controller.externalstoreMnet1from_in |        1728    100.00%    100.00% |           0      0.00%    100.00%
system.ruby.DMA_Controller.externalstoreMnet1from_in::total         1728                      
system.ruby.Directory_Controller.I.allocTBE |      282964     30.89%     30.89% |      253486     27.67%     58.56% |      184641     20.15%     78.71% |      195037     21.29%    100.00%
system.ruby.Directory_Controller.I.allocTBE::total       916128                      
system.ruby.Directory_Controller.I.deallocTBE |      281968     30.91%     30.91% |      252499     27.68%     58.59% |      183673     20.14%     78.73% |      194058     21.27%    100.00%
system.ruby.Directory_Controller.I.deallocTBE::total       912198                      
system.ruby.Directory_Controller.I_GetSL1C1_0.Stallreqto_in |         252     25.82%     25.82% |         231     23.67%     49.49% |         249     25.51%     75.00% |         244     25.00%    100.00%
system.ruby.Directory_Controller.I_GetSL1C1_0.Stallreqto_in::total          976                      
system.ruby.Directory_Controller.M.allocTBE |       88772     29.30%     29.30% |       79069     26.09%     55.39% |       69215     22.84%     78.23% |       65963     21.77%    100.00%
system.ruby.Directory_Controller.M.allocTBE::total       303019                      
system.ruby.Directory_Controller.M.deallocTBE |       88975     29.29%     29.29% |       79267     26.09%     55.38% |       69418     22.85%     78.22% |       66157     21.78%    100.00%
system.ruby.Directory_Controller.M.deallocTBE::total       303817                      
system.ruby.Directory_Controller.M_GetS.Progress |       18065     39.38%     39.38% |       11650     25.40%     64.78% |        8669     18.90%     83.68% |        7485     16.32%    100.00%
system.ruby.Directory_Controller.M_GetS.Progress::total        45869                      
system.ruby.Directory_Controller.M_GetS.Stallreqto_in |           0      0.00%      0.00% |           0      0.00%      0.00% |           0      0.00%      0.00% |           5    100.00%    100.00%
system.ruby.Directory_Controller.M_GetS.Stallreqto_in::total            5                      
system.ruby.Directory_Controller.M_GetS_WBL1C1_0.Stallreqto_in |          54     20.22%     20.22% |          34     12.73%     32.96% |          71     26.59%     59.55% |         108     40.45%    100.00%
system.ruby.Directory_Controller.M_GetS_WBL1C1_0.Stallreqto_in::total          267                      
system.ruby.Directory_Controller.Progress |       18065     39.38%     39.38% |       11650     25.40%     64.78% |        8669     18.90%     83.68% |        7485     16.32%    100.00%
system.ruby.Directory_Controller.Progress::total        45869                      
system.ruby.Directory_Controller.S.allocTBE |      482456     31.89%     31.89% |      355803     23.51%     55.40% |      313285     20.70%     76.10% |      361560     23.90%    100.00%
system.ruby.Directory_Controller.S.allocTBE::total      1513104                      
system.ruby.Directory_Controller.S.deallocTBE |      483249     31.87%     31.87% |      356592     23.52%     55.39% |      314050     20.71%     76.10% |      362345     23.90%    100.00%
system.ruby.Directory_Controller.S.deallocTBE::total      1516236                      
system.ruby.Directory_Controller.S_GetML1C1_1.Stallreqto_in |           0      0.00%      0.00% |           0      0.00%      0.00% |           3     33.33%     33.33% |           6     66.67%    100.00%
system.ruby.Directory_Controller.S_GetML1C1_1.Stallreqto_in::total            9                      
system.ruby.Directory_Controller.S_GetSL1C1_0.Stallreqto_in |          25     47.17%     47.17% |          14     26.42%     73.58% |          10     18.87%     92.45% |           4      7.55%    100.00%
system.ruby.Directory_Controller.S_GetSL1C1_0.Stallreqto_in::total           53                      
system.ruby.Directory_Controller.Stallreqto_in |         331     25.27%     25.27% |         279     21.30%     46.56% |         333     25.42%     71.98% |         367     28.02%    100.00%
system.ruby.Directory_Controller.Stallreqto_in::total         1310                      
system.ruby.Directory_Controller.allocTBE |      854192     31.26%     31.26% |      688358     25.19%     56.46% |      567141     20.76%     77.21% |      622560     22.79%    100.00%
system.ruby.Directory_Controller.allocTBE::total      2732251                      
system.ruby.Directory_Controller.deallocTBE |      854192     31.26%     31.26% |      688358     25.19%     56.46% |      567141     20.76%     77.21% |      622560     22.79%    100.00%
system.ruby.Directory_Controller.deallocTBE::total      2732251                      
system.ruby.IFETCH.hit_latency_hist_seqr::bucket_size            1                      
system.ruby.IFETCH.hit_latency_hist_seqr::max_bucket            9                      
system.ruby.IFETCH.hit_latency_hist_seqr::samples    101381874                      
system.ruby.IFETCH.hit_latency_hist_seqr |   101381874    100.00%    100.00% |           0      0.00%    100.00% |           0      0.00%    100.00% |           0      0.00%    100.00% |           0      0.00%    100.00% |           0      0.00%    100.00% |           0      0.00%    100.00% |           0      0.00%    100.00% |           0      0.00%    100.00% |           0      0.00%    100.00%
system.ruby.IFETCH.hit_latency_hist_seqr::total    101381874                      
system.ruby.IFETCH.latency_hist_seqr::bucket_size            1                      
system.ruby.IFETCH.latency_hist_seqr::max_bucket            9                      
system.ruby.IFETCH.latency_hist_seqr::samples    101996682                      
system.ruby.IFETCH.latency_hist_seqr     |   101996682    100.00%    100.00% |           0      0.00%    100.00% |           0      0.00%    100.00% |           0      0.00%    100.00% |           0      0.00%    100.00% |           0      0.00%    100.00% |           0      0.00%    100.00% |           0      0.00%    100.00% |           0      0.00%    100.00% |           0      0.00%    100.00%
system.ruby.IFETCH.latency_hist_seqr::total    101996682                      
system.ruby.IFETCH.miss_latency_hist_seqr::bucket_size            1                      
system.ruby.IFETCH.miss_latency_hist_seqr::max_bucket            9                      
system.ruby.IFETCH.miss_latency_hist_seqr::samples       614808                      
system.ruby.IFETCH.miss_latency_hist_seqr |      614808    100.00%    100.00% |           0      0.00%    100.00% |           0      0.00%    100.00% |           0      0.00%    100.00% |           0      0.00%    100.00% |           0      0.00%    100.00% |           0      0.00%    100.00% |           0      0.00%    100.00% |           0      0.00%    100.00% |           0      0.00%    100.00%
system.ruby.IFETCH.miss_latency_hist_seqr::total       614808                      
system.ruby.L1Cache_Controller.I.allocI_load |      424197     36.32%     36.32% |      264980     22.69%     59.01% |      199505     17.08%     76.09% |      279217     23.91%    100.00%
system.ruby.L1Cache_Controller.I.allocI_load::total      1167899                      
system.ruby.L1Cache_Controller.I.allocI_store |       64649     33.99%     33.99% |       43064     22.64%     56.63% |       16310      8.57%     65.20% |       66196     34.80%    100.00%
system.ruby.L1Cache_Controller.I.allocI_store::total       190219                      
system.ruby.L1Cache_Controller.I.deallocnet0from_in |       95358     37.28%     37.28% |       60808     23.77%     61.06% |       24375      9.53%     70.59% |       75237     29.41%    100.00%
system.ruby.L1Cache_Controller.I.deallocnet0from_in::total       255778                      
system.ruby.L1Cache_Controller.I.deallocnet1from_in |           0      0.00%      0.00% |           0      0.00%      0.00% |           1    100.00%    100.00% |           0      0.00%    100.00%
system.ruby.L1Cache_Controller.I.deallocnet1from_in::total            1                      
system.ruby.L1Cache_Controller.I.deallocnet2from_in |      392545     35.74%     35.74% |      246229     22.42%     58.15% |      190415     17.34%     75.49% |      269212     24.51%    100.00%
system.ruby.L1Cache_Controller.I.deallocnet2from_in::total      1098401                      
system.ruby.L1Cache_Controller.I_evict.Progress |           0      0.00%      0.00% |           0      0.00%      0.00% |           1    100.00%    100.00% |           0      0.00%    100.00%
system.ruby.L1Cache_Controller.I_evict.Progress::total            1                      
system.ruby.L1Cache_Controller.I_store.Progress |           4     66.67%     66.67% |           2     33.33%    100.00% |           0      0.00%    100.00% |           0      0.00%    100.00%
system.ruby.L1Cache_Controller.I_store.Progress::total            6                      
system.ruby.L1Cache_Controller.I_store.Stallnet0from_in |           2     28.57%     28.57% |           1     14.29%     42.86% |           4     57.14%    100.00% |           0      0.00%    100.00%
system.ruby.L1Cache_Controller.I_store.Stallnet0from_in::total            7                      
system.ruby.L1Cache_Controller.I_store_GetM_Ack_AD.Progress |         785     34.23%     34.23% |         449     19.58%     53.82% |          93      4.06%     57.87% |         966     42.13%    100.00%
system.ruby.L1Cache_Controller.I_store_GetM_Ack_AD.Progress::total         2293                      
system.ruby.L1Cache_Controller.M.MloadMEvent |     6387509     42.47%     42.47% |     2900185     19.28%     61.75% |     2247112     14.94%     76.70% |     3504907     23.30%    100.00%
system.ruby.L1Cache_Controller.M.MloadMEvent::total     15039713                      
system.ruby.L1Cache_Controller.M.MstoreMEvent |     5973990     39.04%     39.04% |     3140950     20.53%     59.57% |     2394812     15.65%     75.22% |     3792260     24.78%    100.00%
system.ruby.L1Cache_Controller.M.MstoreMEvent::total     15302012                      
system.ruby.L1Cache_Controller.M.allocTBE |      126204     41.89%     41.89% |       66126     21.95%     63.84% |       29629      9.83%     73.67% |       79331     26.33%    100.00%
system.ruby.L1Cache_Controller.M.allocTBE::total       301290                      
system.ruby.L1Cache_Controller.M.externalstoreMnet1from_in |       95302     37.24%     37.24% |       60976     23.83%     61.06% |       24779      9.68%     70.74% |       74875     29.26%    100.00%
system.ruby.L1Cache_Controller.M.externalstoreMnet1from_in::total       255932                      
system.ruby.L1Cache_Controller.M.externalstoreMrespfrom_in |       31060     67.29%     67.29% |        5301     11.48%     78.78% |        5156     11.17%     89.95% |        4639     10.05%    100.00%
system.ruby.L1Cache_Controller.M.externalstoreMrespfrom_in::total        46156                      
system.ruby.L1Cache_Controller.M_evict.Stallmandatory_in |         250     31.93%     31.93% |         204     26.05%     57.98% |         123     15.71%     73.69% |         206     26.31%    100.00%
system.ruby.L1Cache_Controller.M_evict.Stallmandatory_in::total          783                      
system.ruby.L1Cache_Controller.MloadMEvent |     6387509     42.47%     42.47% |     2900185     19.28%     61.75% |     2247112     14.94%     76.70% |     3504907     23.30%    100.00%
system.ruby.L1Cache_Controller.MloadMEvent::total     15039713                      
system.ruby.L1Cache_Controller.MstoreMEvent |     5973990     39.04%     39.04% |     3140950     20.53%     59.57% |     2394812     15.65%     75.22% |     3792260     24.78%    100.00%
system.ruby.L1Cache_Controller.MstoreMEvent::total     15302012                      
system.ruby.L1Cache_Controller.Progress  |      143474     68.26%     68.26% |       29177     13.88%     82.14% |       18944      9.01%     91.16% |       18585      8.84%    100.00%
system.ruby.L1Cache_Controller.Progress::total       210180                      
system.ruby.L1Cache_Controller.S.SloadSEvent |    43382356     39.88%     39.88% |    20864567     19.18%     59.06% |    15713073     14.45%     73.51% |    28814431     26.49%    100.00%
system.ruby.L1Cache_Controller.S.SloadSEvent::total    108774427                      
system.ruby.L1Cache_Controller.S.allocTBE |      454258     37.53%     37.53% |      269442     22.26%     59.80% |      204041     16.86%     76.66% |      282530     23.34%    100.00%
system.ruby.L1Cache_Controller.S.allocTBE::total      1210271                      
system.ruby.L1Cache_Controller.S.deallocTBE |       30846     67.78%     67.78% |        5318     11.68%     79.46% |        5254     11.54%     91.00% |        4094      9.00%    100.00%
system.ruby.L1Cache_Controller.S.deallocTBE::total        45512                      
system.ruby.L1Cache_Controller.S.externalloadSnet0from_in |      419802     37.41%     37.41% |      259860     23.16%     60.57% |      193313     17.23%     77.80% |      249075     22.20%    100.00%
system.ruby.L1Cache_Controller.S.externalloadSnet0from_in::total      1122050                      
system.ruby.L1Cache_Controller.S.externalloadSrespfrom_in |        4395      9.59%      9.59% |        5120     11.17%     20.75% |        6192     13.51%     34.26% |       30142     65.74%    100.00%
system.ruby.L1Cache_Controller.S.externalloadSrespfrom_in::total        45849                      
system.ruby.L1Cache_Controller.S_evict.Stallmandatory_in |         207     35.45%     35.45% |         178     30.48%     65.92% |         120     20.55%     86.47% |          79     13.53%    100.00%
system.ruby.L1Cache_Controller.S_evict.Stallmandatory_in::total          584                      
system.ruby.L1Cache_Controller.S_evict.Stallnet1from_in |           0      0.00%      0.00% |           0      0.00%      0.00% |           1    100.00%    100.00% |           0      0.00%    100.00%
system.ruby.L1Cache_Controller.S_evict.Stallnet1from_in::total            1                      
system.ruby.L1Cache_Controller.S_store.Progress |       61713     55.17%     55.17% |       23213     20.75%     75.92% |       13625     12.18%     88.10% |       13318     11.90%    100.00%
system.ruby.L1Cache_Controller.S_store.Progress::total       111869                      
system.ruby.L1Cache_Controller.S_store.Stallnet0from_in |           0      0.00%      0.00% |           9     69.23%     69.23% |           2     15.38%     84.62% |           2     15.38%    100.00%
system.ruby.L1Cache_Controller.S_store.Stallnet0from_in::total           13                      
system.ruby.L1Cache_Controller.S_store_GetM_Ack_AD.Progress |       80972     84.34%     84.34% |        5513      5.74%     90.08% |        5225      5.44%     95.52% |        4301      4.48%    100.00%
system.ruby.L1Cache_Controller.S_store_GetM_Ack_AD.Progress::total        96011                      
system.ruby.L1Cache_Controller.S_store_GetM_Ack_AD.Stallnet0from_in |           3     11.54%     11.54% |          17     65.38%     76.92% |           3     11.54%     88.46% |           3     11.54%    100.00%
system.ruby.L1Cache_Controller.S_store_GetM_Ack_AD.Stallnet0from_in::total           26                      
system.ruby.L1Cache_Controller.SloadSEvent |    43382356     39.88%     39.88% |    20864567     19.18%     59.06% |    15713073     14.45%     73.51% |    28814431     26.49%    100.00%
system.ruby.L1Cache_Controller.SloadSEvent::total    108774427                      
system.ruby.L1Cache_Controller.Stallmandatory_in |         457     33.43%     33.43% |         382     27.94%     61.38% |         243     17.78%     79.15% |         285     20.85%    100.00%
system.ruby.L1Cache_Controller.Stallmandatory_in::total         1367                      
system.ruby.L1Cache_Controller.Stallnet0from_in |           5     10.87%     10.87% |          27     58.70%     69.57% |           9     19.57%     89.13% |           5     10.87%    100.00%
system.ruby.L1Cache_Controller.Stallnet0from_in::total           46                      
system.ruby.L1Cache_Controller.Stallnet1from_in |           0      0.00%      0.00% |           0      0.00%      0.00% |           1    100.00%    100.00% |           0      0.00%    100.00%
system.ruby.L1Cache_Controller.Stallnet1from_in::total            1                      
system.ruby.L1Cache_Controller.allocI_load |      424197     36.32%     36.32% |      264980     22.69%     59.01% |      199505     17.08%     76.09% |      279217     23.91%    100.00%
system.ruby.L1Cache_Controller.allocI_load::total      1167899                      
system.ruby.L1Cache_Controller.allocI_store |       64649     33.99%     33.99% |       43064     22.64%     56.63% |       16310      8.57%     65.20% |       66196     34.80%    100.00%
system.ruby.L1Cache_Controller.allocI_store::total       190219                      
system.ruby.L1Cache_Controller.allocTBE  |      580462     38.40%     38.40% |      335568     22.20%     60.60% |      233670     15.46%     76.06% |      361861     23.94%    100.00%
system.ruby.L1Cache_Controller.allocTBE::total      1511561                      
system.ruby.L1Cache_Controller.deallocTBE |       30846     67.78%     67.78% |        5318     11.68%     79.46% |        5254     11.54%     91.00% |        4094      9.00%    100.00%
system.ruby.L1Cache_Controller.deallocTBE::total        45512                      
system.ruby.L1Cache_Controller.deallocnet0from_in |       95358     37.28%     37.28% |       60808     23.77%     61.06% |       24375      9.53%     70.59% |       75237     29.41%    100.00%
system.ruby.L1Cache_Controller.deallocnet0from_in::total       255778                      
system.ruby.L1Cache_Controller.deallocnet1from_in |           0      0.00%      0.00% |           0      0.00%      0.00% |           1    100.00%    100.00% |           0      0.00%    100.00%
system.ruby.L1Cache_Controller.deallocnet1from_in::total            1                      
system.ruby.L1Cache_Controller.deallocnet2from_in |      392545     35.74%     35.74% |      246229     22.42%     58.15% |      190415     17.34%     75.49% |      269212     24.51%    100.00%
system.ruby.L1Cache_Controller.deallocnet2from_in::total      1098401                      
system.ruby.L1Cache_Controller.externalloadSnet0from_in |      419802     37.41%     37.41% |      259860     23.16%     60.57% |      193313     17.23%     77.80% |      249075     22.20%    100.00%
system.ruby.L1Cache_Controller.externalloadSnet0from_in::total      1122050                      
system.ruby.L1Cache_Controller.externalloadSrespfrom_in |        4395      9.59%      9.59% |        5120     11.17%     20.75% |        6192     13.51%     34.26% |       30142     65.74%    100.00%
system.ruby.L1Cache_Controller.externalloadSrespfrom_in::total        45849                      
system.ruby.L1Cache_Controller.externalstoreMnet1from_in |       95302     37.24%     37.24% |       60976     23.83%     61.06% |       24779      9.68%     70.74% |       74875     29.26%    100.00%
system.ruby.L1Cache_Controller.externalstoreMnet1from_in::total       255932                      
system.ruby.L1Cache_Controller.externalstoreMrespfrom_in |       31060     67.29%     67.29% |        5301     11.48%     78.78% |        5156     11.17%     89.95% |        4639     10.05%    100.00%
system.ruby.L1Cache_Controller.externalstoreMrespfrom_in::total        46156                      
system.ruby.LD.hit_latency_hist_seqr::bucket_size            1                      
system.ruby.LD.hit_latency_hist_seqr::max_bucket            9                      
system.ruby.LD.hit_latency_hist_seqr::samples     22432266                      
system.ruby.LD.hit_latency_hist_seqr     |    22432266    100.00%    100.00% |           0      0.00%    100.00% |           0      0.00%    100.00% |           0      0.00%    100.00% |           0      0.00%    100.00% |           0      0.00%    100.00% |           0      0.00%    100.00% |           0      0.00%    100.00% |           0      0.00%    100.00% |           0      0.00%    100.00%
system.ruby.LD.hit_latency_hist_seqr::total     22432266                      
system.ruby.LD.latency_hist_seqr::bucket_size            1                      
system.ruby.LD.latency_hist_seqr::max_bucket            9                      
system.ruby.LD.latency_hist_seqr::samples     22985357                      
system.ruby.LD.latency_hist_seqr         |    22985357    100.00%    100.00% |           0      0.00%    100.00% |           0      0.00%    100.00% |           0      0.00%    100.00% |           0      0.00%    100.00% |           0      0.00%    100.00% |           0      0.00%    100.00% |           0      0.00%    100.00% |           0      0.00%    100.00% |           0      0.00%    100.00%
system.ruby.LD.latency_hist_seqr::total      22985357                      
system.ruby.LD.miss_latency_hist_seqr::bucket_size            1                      
system.ruby.LD.miss_latency_hist_seqr::max_bucket            9                      
system.ruby.LD.miss_latency_hist_seqr::samples       553091                      
system.ruby.LD.miss_latency_hist_seqr    |      553091    100.00%    100.00% |           0      0.00%    100.00% |           0      0.00%    100.00% |           0      0.00%    100.00% |           0      0.00%    100.00% |           0      0.00%    100.00% |           0      0.00%    100.00% |           0      0.00%    100.00% |           0      0.00%    100.00% |           0      0.00%    100.00%
system.ruby.LD.miss_latency_hist_seqr::total       553091                      
system.ruby.Locked_RMW_Read.hit_latency_hist_seqr::bucket_size            1                      
system.ruby.Locked_RMW_Read.hit_latency_hist_seqr::max_bucket            9                      
system.ruby.Locked_RMW_Read.hit_latency_hist_seqr::samples       281526                      
system.ruby.Locked_RMW_Read.hit_latency_hist_seqr |      281526    100.00%    100.00% |           0      0.00%    100.00% |           0      0.00%    100.00% |           0      0.00%    100.00% |           0      0.00%    100.00% |           0      0.00%    100.00% |           0      0.00%    100.00% |           0      0.00%    100.00% |           0      0.00%    100.00% |           0      0.00%    100.00%
system.ruby.Locked_RMW_Read.hit_latency_hist_seqr::total       281526                      
system.ruby.Locked_RMW_Read.latency_hist_seqr::bucket_size            1                      
system.ruby.Locked_RMW_Read.latency_hist_seqr::max_bucket            9                      
system.ruby.Locked_RMW_Read.latency_hist_seqr::samples       323276                      
system.ruby.Locked_RMW_Read.latency_hist_seqr |      323276    100.00%    100.00% |           0      0.00%    100.00% |           0      0.00%    100.00% |           0      0.00%    100.00% |           0      0.00%    100.00% |           0      0.00%    100.00% |           0      0.00%    100.00% |           0      0.00%    100.00% |           0      0.00%    100.00% |           0      0.00%    100.00%
system.ruby.Locked_RMW_Read.latency_hist_seqr::total       323276                      
system.ruby.Locked_RMW_Read.miss_latency_hist_seqr::bucket_size            1                      
system.ruby.Locked_RMW_Read.miss_latency_hist_seqr::max_bucket            9                      
system.ruby.Locked_RMW_Read.miss_latency_hist_seqr::samples        41750                      
system.ruby.Locked_RMW_Read.miss_latency_hist_seqr |       41750    100.00%    100.00% |           0      0.00%    100.00% |           0      0.00%    100.00% |           0      0.00%    100.00% |           0      0.00%    100.00% |           0      0.00%    100.00% |           0      0.00%    100.00% |           0      0.00%    100.00% |           0      0.00%    100.00% |           0      0.00%    100.00%
system.ruby.Locked_RMW_Read.miss_latency_hist_seqr::total        41750                      
system.ruby.Locked_RMW_Write.hit_latency_hist_seqr::bucket_size            1                      
system.ruby.Locked_RMW_Write.hit_latency_hist_seqr::max_bucket            9                      
system.ruby.Locked_RMW_Write.hit_latency_hist_seqr::samples       323276                      
system.ruby.Locked_RMW_Write.hit_latency_hist_seqr |      323276    100.00%    100.00% |           0      0.00%    100.00% |           0      0.00%    100.00% |           0      0.00%    100.00% |           0      0.00%    100.00% |           0      0.00%    100.00% |           0      0.00%    100.00% |           0      0.00%    100.00% |           0      0.00%    100.00% |           0      0.00%    100.00%
system.ruby.Locked_RMW_Write.hit_latency_hist_seqr::total       323276                      
system.ruby.Locked_RMW_Write.latency_hist_seqr::bucket_size            1                      
system.ruby.Locked_RMW_Write.latency_hist_seqr::max_bucket            9                      
system.ruby.Locked_RMW_Write.latency_hist_seqr::samples       323276                      
system.ruby.Locked_RMW_Write.latency_hist_seqr |      323276    100.00%    100.00% |           0      0.00%    100.00% |           0      0.00%    100.00% |           0      0.00%    100.00% |           0      0.00%    100.00% |           0      0.00%    100.00% |           0      0.00%    100.00% |           0      0.00%    100.00% |           0      0.00%    100.00% |           0      0.00%    100.00%
system.ruby.Locked_RMW_Write.latency_hist_seqr::total       323276                      
system.ruby.RMW_Read.hit_latency_hist_seqr::bucket_size            1                      
system.ruby.RMW_Read.hit_latency_hist_seqr::max_bucket            9                      
system.ruby.RMW_Read.hit_latency_hist_seqr::samples       771774                      
system.ruby.RMW_Read.hit_latency_hist_seqr |      771774    100.00%    100.00% |           0      0.00%    100.00% |           0      0.00%    100.00% |           0      0.00%    100.00% |           0      0.00%    100.00% |           0      0.00%    100.00% |           0      0.00%    100.00% |           0      0.00%    100.00% |           0      0.00%    100.00% |           0      0.00%    100.00%
system.ruby.RMW_Read.hit_latency_hist_seqr::total       771774                      
system.ruby.RMW_Read.latency_hist_seqr::bucket_size            1                      
system.ruby.RMW_Read.latency_hist_seqr::max_bucket            9                      
system.ruby.RMW_Read.latency_hist_seqr::samples       793738                      
system.ruby.RMW_Read.latency_hist_seqr   |      793738    100.00%    100.00% |           0      0.00%    100.00% |           0      0.00%    100.00% |           0      0.00%    100.00% |           0      0.00%    100.00% |           0      0.00%    100.00% |           0      0.00%    100.00% |           0      0.00%    100.00% |           0      0.00%    100.00% |           0      0.00%    100.00%
system.ruby.RMW_Read.latency_hist_seqr::total       793738                      
system.ruby.RMW_Read.miss_latency_hist_seqr::bucket_size            1                      
system.ruby.RMW_Read.miss_latency_hist_seqr::max_bucket            9                      
system.ruby.RMW_Read.miss_latency_hist_seqr::samples        21964                      
system.ruby.RMW_Read.miss_latency_hist_seqr |       21964    100.00%    100.00% |           0      0.00%    100.00% |           0      0.00%    100.00% |           0      0.00%    100.00% |           0      0.00%    100.00% |           0      0.00%    100.00% |           0      0.00%    100.00% |           0      0.00%    100.00% |           0      0.00%    100.00% |           0      0.00%    100.00%
system.ruby.RMW_Read.miss_latency_hist_seqr::total        21964                      
system.ruby.ST.hit_latency_hist_seqr::bucket_size            1                      
system.ruby.ST.hit_latency_hist_seqr::max_bucket            9                      
system.ruby.ST.hit_latency_hist_seqr::samples     13925436                      
system.ruby.ST.hit_latency_hist_seqr     |    13925436    100.00%    100.00% |           0      0.00%    100.00% |           0      0.00%    100.00% |           0      0.00%    100.00% |           0      0.00%    100.00% |           0      0.00%    100.00% |           0      0.00%    100.00% |           0      0.00%    100.00% |           0      0.00%    100.00% |           0      0.00%    100.00%
system.ruby.ST.hit_latency_hist_seqr::total     13925436                      
system.ruby.ST.latency_hist_seqr::bucket_size            1                      
system.ruby.ST.latency_hist_seqr::max_bucket            9                      
system.ruby.ST.latency_hist_seqr::samples     14163810                      
system.ruby.ST.latency_hist_seqr         |    14163810    100.00%    100.00% |           0      0.00%    100.00% |           0      0.00%    100.00% |           0      0.00%    100.00% |           0      0.00%    100.00% |           0      0.00%    100.00% |           0      0.00%    100.00% |           0      0.00%    100.00% |           0      0.00%    100.00% |           0      0.00%    100.00%
system.ruby.ST.latency_hist_seqr::total      14163810                      
system.ruby.ST.miss_latency_hist_seqr::bucket_size            1                      
system.ruby.ST.miss_latency_hist_seqr::max_bucket            9                      
system.ruby.ST.miss_latency_hist_seqr::samples       238374                      
system.ruby.ST.miss_latency_hist_seqr    |      238374    100.00%    100.00% |           0      0.00%    100.00% |           0      0.00%    100.00% |           0      0.00%    100.00% |           0      0.00%    100.00% |           0      0.00%    100.00% |           0      0.00%    100.00% |           0      0.00%    100.00% |           0      0.00%    100.00% |           0      0.00%    100.00%
system.ruby.ST.miss_latency_hist_seqr::total       238374                      
system.ruby.dir_cntrl0.net0From.avg_buf_msgs     0.000268                       # Average number of messages in buffer
system.ruby.dir_cntrl0.net0From.avg_stall_time  3000.341515                       # Average number of cycles messages are stalled in this MB
system.ruby.dir_cntrl0.net1From.avg_buf_msgs     0.000052                       # Average number of messages in buffer
system.ruby.dir_cntrl0.net1From.avg_stall_time  3000.191612                       # Average number of cycles messages are stalled in this MB
system.ruby.dir_cntrl0.net2From.avg_buf_msgs     0.000199                       # Average number of messages in buffer
system.ruby.dir_cntrl0.net2From.avg_stall_time  2999.997129                       # Average number of cycles messages are stalled in this MB
system.ruby.dir_cntrl0.reqTo.avg_buf_msgs     0.000084                       # Average number of messages in buffer
system.ruby.dir_cntrl0.reqTo.avg_stall_time  3876.735619                       # Average number of cycles messages are stalled in this MB
system.ruby.dir_cntrl0.requestToMemory.avg_buf_msgs     0.000052                       # Average number of messages in buffer
system.ruby.dir_cntrl0.requestToMemory.avg_stall_time   499.999999                       # Average number of cycles messages are stalled in this MB
system.ruby.dir_cntrl0.respTo.avg_buf_msgs     0.000002                       # Average number of messages in buffer
system.ruby.dir_cntrl0.respTo.avg_stall_time 13724.804183                       # Average number of cycles messages are stalled in this MB
system.ruby.dir_cntrl0.responseFromMemory.avg_buf_msgs     0.000052                       # Average number of messages in buffer
system.ruby.dir_cntrl0.responseFromMemory.avg_stall_time   499.999991                       # Average number of cycles messages are stalled in this MB
system.ruby.dir_cntrl1.net0From.avg_buf_msgs     0.000217                       # Average number of messages in buffer
system.ruby.dir_cntrl1.net0From.avg_stall_time  3000.335516                       # Average number of cycles messages are stalled in this MB
system.ruby.dir_cntrl1.net1From.avg_buf_msgs     0.000048                       # Average number of messages in buffer
system.ruby.dir_cntrl1.net1From.avg_stall_time  3000.132247                       # Average number of cycles messages are stalled in this MB
system.ruby.dir_cntrl1.net2From.avg_buf_msgs     0.000154                       # Average number of messages in buffer
system.ruby.dir_cntrl1.net2From.avg_stall_time  2999.998583                       # Average number of cycles messages are stalled in this MB
system.ruby.dir_cntrl1.reqTo.avg_buf_msgs     0.000068                       # Average number of messages in buffer
system.ruby.dir_cntrl1.reqTo.avg_stall_time  3525.906831                       # Average number of cycles messages are stalled in this MB
system.ruby.dir_cntrl1.requestToMemory.avg_buf_msgs     0.000043                       # Average number of messages in buffer
system.ruby.dir_cntrl1.requestToMemory.avg_stall_time   499.999989                       # Average number of cycles messages are stalled in this MB
system.ruby.dir_cntrl1.respTo.avg_buf_msgs     0.000001                       # Average number of messages in buffer
system.ruby.dir_cntrl1.respTo.avg_stall_time 14582.528894                       # Average number of cycles messages are stalled in this MB
system.ruby.dir_cntrl1.responseFromMemory.avg_buf_msgs     0.000043                       # Average number of messages in buffer
system.ruby.dir_cntrl1.responseFromMemory.avg_stall_time   499.999981                       # Average number of cycles messages are stalled in this MB
system.ruby.dir_cntrl2.net0From.avg_buf_msgs     0.000185                       # Average number of messages in buffer
system.ruby.dir_cntrl2.net0From.avg_stall_time  3000.750776                       # Average number of cycles messages are stalled in this MB
system.ruby.dir_cntrl2.net1From.avg_buf_msgs     0.000044                       # Average number of messages in buffer
system.ruby.dir_cntrl2.net1From.avg_stall_time  3000.647903                       # Average number of cycles messages are stalled in this MB
system.ruby.dir_cntrl2.net2From.avg_buf_msgs     0.000123                       # Average number of messages in buffer
system.ruby.dir_cntrl2.net2From.avg_stall_time  2999.995042                       # Average number of cycles messages are stalled in this MB
system.ruby.dir_cntrl2.reqTo.avg_buf_msgs     0.000056                       # Average number of messages in buffer
system.ruby.dir_cntrl2.reqTo.avg_stall_time  4507.475440                       # Average number of cycles messages are stalled in this MB
system.ruby.dir_cntrl2.requestToMemory.avg_buf_msgs     0.000036                       # Average number of messages in buffer
system.ruby.dir_cntrl2.requestToMemory.avg_stall_time   499.999968                       # Average number of cycles messages are stalled in this MB
system.ruby.dir_cntrl2.respTo.avg_buf_msgs     0.000001                       # Average number of messages in buffer
system.ruby.dir_cntrl2.respTo.avg_stall_time 14487.557277                       # Average number of cycles messages are stalled in this MB
system.ruby.dir_cntrl2.responseFromMemory.avg_buf_msgs     0.000036                       # Average number of messages in buffer
system.ruby.dir_cntrl2.responseFromMemory.avg_stall_time   499.999960                       # Average number of cycles messages are stalled in this MB
system.ruby.dir_cntrl3.net0From.avg_buf_msgs     0.000200                       # Average number of messages in buffer
system.ruby.dir_cntrl3.net0From.avg_stall_time  3000.659900                       # Average number of cycles messages are stalled in this MB
system.ruby.dir_cntrl3.net1From.avg_buf_msgs     0.000042                       # Average number of messages in buffer
system.ruby.dir_cntrl3.net1From.avg_stall_time  3000.441495                       # Average number of cycles messages are stalled in this MB
system.ruby.dir_cntrl3.net2From.avg_buf_msgs     0.000142                       # Average number of messages in buffer
system.ruby.dir_cntrl3.net2From.avg_stall_time  2999.999449                       # Average number of cycles messages are stalled in this MB
system.ruby.dir_cntrl3.reqTo.avg_buf_msgs     0.000062                       # Average number of messages in buffer
system.ruby.dir_cntrl3.reqTo.avg_stall_time  4155.190376                       # Average number of cycles messages are stalled in this MB
system.ruby.dir_cntrl3.requestToMemory.avg_buf_msgs     0.000038                       # Average number of messages in buffer
system.ruby.dir_cntrl3.requestToMemory.avg_stall_time   499.999999                       # Average number of cycles messages are stalled in this MB
system.ruby.dir_cntrl3.respTo.avg_buf_msgs     0.000001                       # Average number of messages in buffer
system.ruby.dir_cntrl3.respTo.avg_stall_time 15288.473136                       # Average number of cycles messages are stalled in this MB
system.ruby.dir_cntrl3.responseFromMemory.avg_buf_msgs     0.000038                       # Average number of messages in buffer
system.ruby.dir_cntrl3.responseFromMemory.avg_stall_time   499.999991                       # Average number of cycles messages are stalled in this MB
system.ruby.dma_cntrl0.cache.demand_accesses            0                       # Number of cache demand accesses
system.ruby.dma_cntrl0.cache.demand_hits            0                       # Number of cache demand hits
system.ruby.dma_cntrl0.cache.demand_misses            0                       # Number of cache demand misses
system.ruby.dma_cntrl0.fully_busy_cycles         6881                       # cycles for which number of transistions == max transitions
system.ruby.dma_cntrl0.mandatoryQueue.avg_buf_msgs     0.000036                       # Average number of messages in buffer
system.ruby.dma_cntrl0.mandatoryQueue.avg_stall_time 54464.959722                       # Average number of cycles messages are stalled in this MB
system.ruby.dma_cntrl0.net0From.avg_buf_msgs     0.000001                       # Average number of messages in buffer
system.ruby.dma_cntrl0.net0From.avg_stall_time 109387.496535                       # Average number of cycles messages are stalled in this MB
system.ruby.dma_cntrl0.net1From.avg_buf_msgs     0.000000                       # Average number of messages in buffer
system.ruby.dma_cntrl0.net1From.avg_stall_time 139090.854616                       # Average number of cycles messages are stalled in this MB
system.ruby.dma_cntrl0.net2From.avg_buf_msgs     0.000000                       # Average number of messages in buffer
system.ruby.dma_cntrl0.net2From.avg_stall_time  7956.149983                       # Average number of cycles messages are stalled in this MB
system.ruby.dma_cntrl0.reqTo.avg_buf_msgs     0.000044                       # Average number of messages in buffer
system.ruby.dma_cntrl0.reqTo.avg_stall_time  2693.301563                       # Average number of cycles messages are stalled in this MB
system.ruby.dma_cntrl0.respFrom.avg_buf_msgs     0.000000                       # Average number of messages in buffer
system.ruby.dma_cntrl0.respFrom.avg_stall_time 13202.595784                       # Average number of cycles messages are stalled in this MB
system.ruby.dma_cntrl0.respTo.avg_buf_msgs     0.000000                       # Average number of messages in buffer
system.ruby.dma_cntrl0.respTo.avg_stall_time   608.430517                       # Average number of cycles messages are stalled in this MB
system.ruby.hit_latency_hist_seqr::bucket_size            1                      
system.ruby.hit_latency_hist_seqr::max_bucket            9                      
system.ruby.hit_latency_hist_seqr::samples    139116152                      
system.ruby.hit_latency_hist_seqr        |   139116152    100.00%    100.00% |           0      0.00%    100.00% |           0      0.00%    100.00% |           0      0.00%    100.00% |           0      0.00%    100.00% |           0      0.00%    100.00% |           0      0.00%    100.00% |           0      0.00%    100.00% |           0      0.00%    100.00% |           0      0.00%    100.00%
system.ruby.hit_latency_hist_seqr::total    139116152                      
system.ruby.io_controller.cache.demand_accesses            0                       # Number of cache demand accesses
system.ruby.io_controller.cache.demand_hits            0                       # Number of cache demand hits
system.ruby.io_controller.cache.demand_misses            0                       # Number of cache demand misses
system.ruby.l1_cntrl0.cache.demand_accesses            0                       # Number of cache demand accesses
system.ruby.l1_cntrl0.cache.demand_hits             0                       # Number of cache demand hits
system.ruby.l1_cntrl0.cache.demand_misses            0                       # Number of cache demand misses
system.ruby.l1_cntrl0.fully_busy_cycles             1                       # cycles for which number of transistions == max transitions
system.ruby.l1_cntrl0.mandatoryQueue.avg_buf_msgs     0.006729                       # Average number of messages in buffer
system.ruby.l1_cntrl0.mandatoryQueue.avg_stall_time   559.010510                       # Average number of cycles messages are stalled in this MB
system.ruby.l1_cntrl0.net0From.avg_buf_msgs     0.000054                       # Average number of messages in buffer
system.ruby.l1_cntrl0.net0From.avg_stall_time  9221.782295                       # Average number of cycles messages are stalled in this MB
system.ruby.l1_cntrl0.net1From.avg_buf_msgs     0.000012                       # Average number of messages in buffer
system.ruby.l1_cntrl0.net1From.avg_stall_time 16201.420543                       # Average number of cycles messages are stalled in this MB
system.ruby.l1_cntrl0.net2From.avg_buf_msgs     0.000039                       # Average number of messages in buffer
system.ruby.l1_cntrl0.net2From.avg_stall_time  5739.928691                       # Average number of cycles messages are stalled in this MB
system.ruby.l1_cntrl0.reqTo.avg_buf_msgs     0.000102                       # Average number of messages in buffer
system.ruby.l1_cntrl0.reqTo.avg_stall_time   499.942802                       # Average number of cycles messages are stalled in this MB
system.ruby.l1_cntrl0.respFrom.avg_buf_msgs     0.000009                       # Average number of messages in buffer
system.ruby.l1_cntrl0.respFrom.avg_stall_time 14402.992395                       # Average number of cycles messages are stalled in this MB
system.ruby.l1_cntrl0.respTo.avg_buf_msgs     0.000010                       # Average number of messages in buffer
system.ruby.l1_cntrl0.respTo.avg_stall_time   890.984761                       # Average number of cycles messages are stalled in this MB
system.ruby.l1_cntrl1.cache.demand_accesses            0                       # Number of cache demand accesses
system.ruby.l1_cntrl1.cache.demand_hits             0                       # Number of cache demand hits
system.ruby.l1_cntrl1.cache.demand_misses            0                       # Number of cache demand misses
system.ruby.l1_cntrl1.mandatoryQueue.avg_buf_msgs     0.003374                       # Average number of messages in buffer
system.ruby.l1_cntrl1.mandatoryQueue.avg_stall_time   534.294171                       # Average number of cycles messages are stalled in this MB
system.ruby.l1_cntrl1.net0From.avg_buf_msgs     0.992811                       # Average number of messages in buffer
system.ruby.l1_cntrl1.net0From.avg_stall_time 16041.391379                       # Average number of cycles messages are stalled in this MB
system.ruby.l1_cntrl1.net1From.avg_buf_msgs     0.000006                       # Average number of messages in buffer
system.ruby.l1_cntrl1.net1From.avg_stall_time 16617.638139                       # Average number of cycles messages are stalled in this MB
system.ruby.l1_cntrl1.net2From.avg_buf_msgs     0.000024                       # Average number of messages in buffer
system.ruby.l1_cntrl1.net2From.avg_stall_time  7165.940554                       # Average number of cycles messages are stalled in this MB
system.ruby.l1_cntrl1.reqTo.avg_buf_msgs     0.000060                       # Average number of messages in buffer
system.ruby.l1_cntrl1.reqTo.avg_stall_time   500.000027                       # Average number of cycles messages are stalled in this MB
system.ruby.l1_cntrl1.respFrom.avg_buf_msgs     0.000001                       # Average number of messages in buffer
system.ruby.l1_cntrl1.respFrom.avg_stall_time 14253.953923                       # Average number of cycles messages are stalled in this MB
system.ruby.l1_cntrl1.respTo.avg_buf_msgs     0.000005                       # Average number of messages in buffer
system.ruby.l1_cntrl1.respTo.avg_stall_time   558.245076                       # Average number of cycles messages are stalled in this MB
system.ruby.l1_cntrl2.cache.demand_accesses            0                       # Number of cache demand accesses
system.ruby.l1_cntrl2.cache.demand_hits             0                       # Number of cache demand hits
system.ruby.l1_cntrl2.cache.demand_misses            0                       # Number of cache demand misses
system.ruby.l1_cntrl2.mandatoryQueue.avg_buf_msgs     0.002459                       # Average number of messages in buffer
system.ruby.l1_cntrl2.mandatoryQueue.avg_stall_time   519.367327                       # Average number of cycles messages are stalled in this MB
system.ruby.l1_cntrl2.net0From.avg_buf_msgs     0.991769                       # Average number of messages in buffer
system.ruby.l1_cntrl2.net0From.avg_stall_time 13275.035295                       # Average number of cycles messages are stalled in this MB
system.ruby.l1_cntrl2.net1From.avg_buf_msgs     0.000003                       # Average number of messages in buffer
system.ruby.l1_cntrl2.net1From.avg_stall_time 17452.514812                       # Average number of cycles messages are stalled in this MB
system.ruby.l1_cntrl2.net2From.avg_buf_msgs     0.000019                       # Average number of messages in buffer
system.ruby.l1_cntrl2.net2From.avg_stall_time  6707.023695                       # Average number of cycles messages are stalled in this MB
system.ruby.l1_cntrl2.reqTo.avg_buf_msgs     0.000041                       # Average number of messages in buffer
system.ruby.l1_cntrl2.reqTo.avg_stall_time   500.000007                       # Average number of cycles messages are stalled in this MB
system.ruby.l1_cntrl2.respFrom.avg_buf_msgs     0.000001                       # Average number of messages in buffer
system.ruby.l1_cntrl2.respFrom.avg_stall_time 14015.441689                       # Average number of cycles messages are stalled in this MB
system.ruby.l1_cntrl2.respTo.avg_buf_msgs     0.000005                       # Average number of messages in buffer
system.ruby.l1_cntrl2.respTo.avg_stall_time   587.018986                       # Average number of cycles messages are stalled in this MB
system.ruby.l1_cntrl3.cache.demand_accesses            0                       # Number of cache demand accesses
system.ruby.l1_cntrl3.cache.demand_hits             0                       # Number of cache demand hits
system.ruby.l1_cntrl3.cache.demand_misses            0                       # Number of cache demand misses
system.ruby.l1_cntrl3.fully_busy_cycles             1                       # cycles for which number of transistions == max transitions
system.ruby.l1_cntrl3.mandatoryQueue.avg_buf_msgs     0.004409                       # Average number of messages in buffer
system.ruby.l1_cntrl3.mandatoryQueue.avg_stall_time   544.870841                       # Average number of cycles messages are stalled in this MB
system.ruby.l1_cntrl3.net0From.avg_buf_msgs     0.000032                       # Average number of messages in buffer
system.ruby.l1_cntrl3.net0From.avg_stall_time 14960.805624                       # Average number of cycles messages are stalled in this MB
system.ruby.l1_cntrl3.net1From.avg_buf_msgs     0.000008                       # Average number of messages in buffer
system.ruby.l1_cntrl3.net1From.avg_stall_time 16612.338304                       # Average number of cycles messages are stalled in this MB
system.ruby.l1_cntrl3.net2From.avg_buf_msgs     0.000027                       # Average number of messages in buffer
system.ruby.l1_cntrl3.net2From.avg_stall_time  7585.704589                       # Average number of cycles messages are stalled in this MB
system.ruby.l1_cntrl3.reqTo.avg_buf_msgs     0.000066                       # Average number of messages in buffer
system.ruby.l1_cntrl3.reqTo.avg_stall_time   500.000268                       # Average number of cycles messages are stalled in this MB
system.ruby.l1_cntrl3.respFrom.avg_buf_msgs     0.000004                       # Average number of messages in buffer
system.ruby.l1_cntrl3.respFrom.avg_stall_time 14870.488683                       # Average number of cycles messages are stalled in this MB
system.ruby.l1_cntrl3.respTo.avg_buf_msgs     0.000004                       # Average number of messages in buffer
system.ruby.l1_cntrl3.respTo.avg_stall_time   524.835354                       # Average number of cycles messages are stalled in this MB
system.ruby.latency_hist_seqr::bucket_size            1                      
system.ruby.latency_hist_seqr::max_bucket            9                      
system.ruby.latency_hist_seqr::samples      140586139                      
system.ruby.latency_hist_seqr            |   140586139    100.00%    100.00% |           0      0.00%    100.00% |           0      0.00%    100.00% |           0      0.00%    100.00% |           0      0.00%    100.00% |           0      0.00%    100.00% |           0      0.00%    100.00% |           0      0.00%    100.00% |           0      0.00%    100.00% |           0      0.00%    100.00%
system.ruby.latency_hist_seqr::total        140586139                      
system.ruby.miss_latency_hist_seqr::bucket_size            1                      
system.ruby.miss_latency_hist_seqr::max_bucket            9                      
system.ruby.miss_latency_hist_seqr::samples      1469987                      
system.ruby.miss_latency_hist_seqr       |     1469987    100.00%    100.00% |           0      0.00%    100.00% |           0      0.00%    100.00% |           0      0.00%    100.00% |           0      0.00%    100.00% |           0      0.00%    100.00% |           0      0.00%    100.00% |           0      0.00%    100.00% |           0      0.00%    100.00% |           0      0.00%    100.00%
system.ruby.miss_latency_hist_seqr::total      1469987                      
system.ruby.network.average_flit_latency    16.678266                      
system.ruby.network.average_flit_network_latency    12.228601                      
system.ruby.network.average_flit_queueing_latency     4.449664                      
system.ruby.network.average_flit_vnet_latency |   14.652908                       |   15.242806                       |    5.154519                       |   15.730241                       |    8.354287                      
system.ruby.network.average_flit_vqueue_latency |    6.212847                       |    6.283788                       |           6                       |    1.236514                       |    1.298654                      
system.ruby.network.average_hops             1.011093                      
system.ruby.network.average_packet_latency    15.197241                      
system.ruby.network.average_packet_network_latency    11.597085                      
system.ruby.network.average_packet_queueing_latency     3.600156                      
system.ruby.network.average_packet_vnet_latency |   20.888163                       |   25.250641                       |    5.154519                       |   25.735492                       |    6.833037                      
system.ruby.network.average_packet_vqueue_latency |    6.177344                       |    6.283787                       |           6                       |    1.236514                       |    1.158071                      
system.ruby.network.avg_link_utilization     0.003929                      
system.ruby.network.avg_vc_load          |    0.001306     33.25%     33.25% |    0.000148      3.76%     37.00% |    0.000147      3.75%     40.75% |    0.000147      3.74%     44.49% |    0.000326      8.29%     52.77% |    0.000037      0.95%     53.72% |    0.000037      0.95%     54.67% |    0.000037      0.95%     55.62% |    0.000242      6.16%     61.78% |    0.000029      0.74%     62.51% |    0.000027      0.69%     63.21% |    0.000027      0.69%     63.90% |    0.000191      4.86%     68.76% |    0.000065      1.65%     70.40% |    0.000038      0.96%     71.36% |    0.000024      0.61%     71.97% |    0.000821     20.91%     92.87% |    0.000095      2.43%     95.30% |    0.000092      2.35%     97.65% |    0.000092      2.35%    100.00%
system.ruby.network.avg_vc_load::total       0.003929                      
system.ruby.network.ext_in_link_utilization     13248749                      
system.ruby.network.ext_out_link_utilization     13248749                      
system.ruby.network.flit_network_latency |    86941611                       |    22839150                       |     5679187                       |    15273042                       |    31280681                      
system.ruby.network.flit_queueing_latency |    36863324                       |     9415351                       |     6610728                       |     1200575                       |     4862509                      
system.ruby.network.flits_injected       |     5933403     44.78%     44.78% |     1498356     11.31%     56.09% |     1101788      8.32%     64.41% |      970935      7.33%     71.74% |     3744267     28.26%    100.00%
system.ruby.network.flits_injected::total     13248749                      
system.ruby.network.flits_received       |     5933403     44.78%     44.78% |     1498356     11.31%     56.09% |     1101788      8.32%     64.41% |      970935      7.33%     71.74% |     3744267     28.26%    100.00%
system.ruby.network.flits_received::total     13248749                      
system.ruby.network.int_link_utilization     13395717                      
system.ruby.network.packet_network_latency |    29851169                       |     7566910                       |     5679187                       |     4997498                       |    18669573                      
system.ruby.network.packet_queueing_latency |     8828012                       |     1883075                       |     6610728                       |      240115                       |     3164141                      
system.ruby.network.packets_injected     |     1429095     24.82%     24.82% |      299672      5.21%     30.03% |     1101788     19.14%     49.17% |      194187      3.37%     52.54% |     2732251     47.46%    100.00%
system.ruby.network.packets_injected::total      5756993                      
system.ruby.network.packets_received     |     1429095     24.82%     24.82% |      299672      5.21%     30.03% |     1101788     19.14%     49.17% |      194187      3.37%     52.54% |     2732251     47.46%    100.00%
system.ruby.network.packets_received::total      5756993                      
system.ruby.network.routers0.buffer_reads      8398185                      
system.ruby.network.routers0.buffer_writes      8398185                      
system.ruby.network.routers0.crossbar_activity      8398185                      
system.ruby.network.routers0.sw_input_arbiter_activity      8451894                      
system.ruby.network.routers0.sw_output_arbiter_activity      8398185                      
system.ruby.network.routers1.buffer_reads      6652986                      
system.ruby.network.routers1.buffer_writes      6652986                      
system.ruby.network.routers1.crossbar_activity      6652986                      
system.ruby.network.routers1.sw_input_arbiter_activity      6659803                      
system.ruby.network.routers1.sw_output_arbiter_activity      6652986                      
system.ruby.network.routers2.buffer_reads      5526539                      
system.ruby.network.routers2.buffer_writes      5526539                      
system.ruby.network.routers2.crossbar_activity      5526539                      
system.ruby.network.routers2.sw_input_arbiter_activity      5549709                      
system.ruby.network.routers2.sw_output_arbiter_activity      5526539                      
system.ruby.network.routers3.buffer_reads      6066756                      
system.ruby.network.routers3.buffer_writes      6066756                      
system.ruby.network.routers3.crossbar_activity      6066756                      
system.ruby.network.routers3.sw_input_arbiter_activity      6069510                      
system.ruby.network.routers3.sw_output_arbiter_activity      6066756                      
system.ruby.outstanding_req_hist_seqr::bucket_size            1                      
system.ruby.outstanding_req_hist_seqr::max_bucket            9                      
system.ruby.outstanding_req_hist_seqr::samples    140586139                      
system.ruby.outstanding_req_hist_seqr::mean     1.000439                      
system.ruby.outstanding_req_hist_seqr::gmean     1.000304                      
system.ruby.outstanding_req_hist_seqr::stdev     0.020942                      
system.ruby.outstanding_req_hist_seqr    |           0      0.00%      0.00% |   140524456     99.96%     99.96% |       61683      0.04%    100.00% |           0      0.00%    100.00% |           0      0.00%    100.00% |           0      0.00%    100.00% |           0      0.00%    100.00% |           0      0.00%    100.00% |           0      0.00%    100.00% |           0      0.00%    100.00%
system.ruby.outstanding_req_hist_seqr::total    140586139                      
system.switch_cpus0.Branches                  6211521                       # Number of branches fetched
system.switch_cpus0.committedInsts           30532423                       # Number of instructions committed
system.switch_cpus0.committedOps             63544675                       # Number of ops (including micro ops) committed
system.switch_cpus0.dtb.rdAccesses            9467828                       # TLB accesses on read requests
system.switch_cpus0.dtb.rdMisses                28409                       # TLB misses on read requests
system.switch_cpus0.dtb.wrAccesses            5745328                       # TLB accesses on write requests
system.switch_cpus0.dtb.wrMisses                 4559                       # TLB misses on write requests
system.switch_cpus0.idle_fraction            0.982452                       # Percentage of idle cycles
system.switch_cpus0.itb.rdAccesses                  0                       # TLB accesses on read requests
system.switch_cpus0.itb.rdMisses                    0                       # TLB misses on read requests
system.switch_cpus0.itb.wrAccesses           40984279                       # TLB accesses on write requests
system.switch_cpus0.itb.wrMisses                 7900                       # TLB misses on write requests
system.switch_cpus0.kern.inst.arm                   0                       # number of arm instructions executed
system.switch_cpus0.kern.inst.quiesce               0                       # number of quiesce instructions executed
system.switch_cpus0.not_idle_fraction        0.017548                       # Percentage of non-idle cycles
system.switch_cpus0.numCycles             10152722698                       # number of cpu cycles simulated
system.switch_cpus0.numWorkItemsCompleted            0                       # number of work items this cpu completed
system.switch_cpus0.numWorkItemsStarted             0                       # number of work items this cpu started
system.switch_cpus0.num_busy_cycles      178163636.547713                       # Number of busy cycles
system.switch_cpus0.num_cc_register_reads     31251958                       # number of times the CC registers were read
system.switch_cpus0.num_cc_register_writes     17066357                       # number of times the CC registers were written
system.switch_cpus0.num_conditional_control_insts      3690187                       # number of instructions that are conditional controls
system.switch_cpus0.num_fp_alu_accesses       6419738                       # Number of float alu accesses
system.switch_cpus0.num_fp_insts              6419738                       # number of float instructions
system.switch_cpus0.num_fp_register_reads     13085177                       # number of times the floating registers were read
system.switch_cpus0.num_fp_register_writes      6024309                       # number of times the floating registers were written
system.switch_cpus0.num_func_calls            2068065                       # number of times a function call or return occured
system.switch_cpus0.num_idle_cycles      9974559061.452288                       # Number of idle cycles
system.switch_cpus0.num_int_alu_accesses     56748647                       # Number of integer alu accesses
system.switch_cpus0.num_int_insts            56748647                       # number of integer instructions
system.switch_cpus0.num_int_register_reads    119075228                       # number of times the integer registers were read
system.switch_cpus0.num_int_register_writes     45248048                       # number of times the integer registers were written
system.switch_cpus0.num_load_insts            9422566                       # Number of load instructions
system.switch_cpus0.num_mem_refs             15159250                       # number of memory refs
system.switch_cpus0.num_store_insts           5736684                       # Number of store instructions
system.switch_cpus0.num_vec_alu_accesses            0                       # Number of vector alu accesses
system.switch_cpus0.num_vec_insts                   0                       # number of vector instructions
[...]
system.mem_ctrls1.llc.tags.warmup_cycle  101561041294500                       # Cycle when the warmup percentage was hit.
system.mem_ctrls1.llc.tags.occ_blocks::.ruby.dir_cntrl1 35202.036035                       # Average occupied blocks per requestor
system.mem_ctrls1.llc.tags.occ_percent::.ruby.dir_cntrl1     0.134285                       # Average percentage of cache occupancy
system.mem_ctrls1.llc.tags.occ_percent::total     0.134285                       # Average percentage of cache occupancy
system.mem_ctrls1.llc.tags.occ_task_id_blocks::1024        36478                       # Occupied blocks per task id
system.mem_ctrls1.llc.tags.age_task_id_blocks_1024::0            5                       # Occupied blocks per task id
system.mem_ctrls1.llc.tags.age_task_id_blocks_1024::1           28                       # Occupied blocks per task id
system.mem_ctrls1.llc.tags.age_task_id_blocks_1024::2          257                       # Occupied blocks per task id
system.mem_ctrls1.llc.tags.age_task_id_blocks_1024::3          158                       # Occupied blocks per task id
system.mem_ctrls1.llc.tags.age_task_id_blocks_1024::4        36030                       # Occupied blocks per task id
system.mem_ctrls1.llc.tags.occ_task_id_percent::1024     0.139153                       # Percentage of cache occupancy per task id
system.mem_ctrls1.llc.tags.tag_accesses       7063934                       # Number of tag accesses
system.mem_ctrls1.llc.tags.data_accesses       439216                       # Number of data accesses
system.mem_ctrls1.llc.tags.power_state.pwrStateResidencyTicks::UNDEFINED 106637883438001                       # Cumulative time (in ticks) in various power states
system.mem_ctrls1.rank1.actEnergy            34878900                       # Energy for activate commands per rank (pJ)
system.mem_ctrls1.rank1.preEnergy            18527190                       # Energy for precharge commands per rank (pJ)
system.mem_ctrls1.rank1.readEnergy          123814740                       # Energy for read commands per rank (pJ)
system.mem_ctrls1.rank1.writeEnergy                 0                       # Energy for write commands per rank (pJ)
system.mem_ctrls1.rank1.refreshEnergy    400761260640.000061                       # Energy for refresh commands per rank (pJ)
system.mem_ctrls1.rank1.actBackEnergy     81222920070                       # Energy for active background per rank (pJ)
system.mem_ctrls1.rank1.preBackEnergy    1881108990240                       # Energy for precharge background per rank (pJ)
system.mem_ctrls1.rank1.actPowerDownEnergy            0                       # Energy for active power-down per rank (pJ)
system.mem_ctrls1.rank1.prePowerDownEnergy            0                       # Energy for precharge power-down per rank (pJ)
system.mem_ctrls1.rank1.selfRefreshEnergy            0                       # Energy for self refresh per rank (pJ)
system.mem_ctrls1.rank1.totalEnergy      2363270391780                       # Total energy per rank (pJ)
system.mem_ctrls1.rank1.averagePower       465.500058                       # Core power per rank (mW)
system.mem_ctrls1.rank1.totalIdleTime               0                       # Total Idle time Per DRAM Rank
system.mem_ctrls1.rank1.memoryStateTime::IDLE 4889710755752                       # Time in different power states
system.mem_ctrls1.rank1.memoryStateTime::REF 169526760000                       # Time in different power states
system.mem_ctrls1.rank1.memoryStateTime::SREF            0                       # Time in different power states
system.mem_ctrls1.rank1.memoryStateTime::PRE_PDN            0                       # Time in different power states
system.mem_ctrls1.rank1.memoryStateTime::ACT  17604802749                       # Time in different power states
system.mem_ctrls1.rank1.memoryStateTime::ACT_PDN            0                       # Time in different power states
system.mem_ctrls1.rank0.actEnergy            41854680                       # Energy for activate commands per rank (pJ)
system.mem_ctrls1.rank0.preEnergy            22246290                       # Energy for precharge commands per rank (pJ)
system.mem_ctrls1.rank0.readEnergy          136638180                       # Energy for read commands per rank (pJ)
system.mem_ctrls1.rank0.writeEnergy                 0                       # Energy for write commands per rank (pJ)
system.mem_ctrls1.rank0.refreshEnergy    400761260640.000061                       # Energy for refresh commands per rank (pJ)
system.mem_ctrls1.rank0.actBackEnergy     81983065230                       # Energy for active background per rank (pJ)
system.mem_ctrls1.rank0.preBackEnergy    1880469032640                       # Energy for precharge background per rank (pJ)
system.mem_ctrls1.rank0.actPowerDownEnergy            0                       # Energy for active power-down per rank (pJ)
system.mem_ctrls1.rank0.prePowerDownEnergy            0                       # Energy for precharge power-down per rank (pJ)
system.mem_ctrls1.rank0.selfRefreshEnergy            0                       # Energy for self refresh per rank (pJ)
system.mem_ctrls1.rank0.totalEnergy      2363414097660                       # Total energy per rank (pJ)
system.mem_ctrls1.rank0.averagePower       465.528364                       # Core power per rank (mW)
system.mem_ctrls1.rank0.totalIdleTime               0                       # Total Idle time Per DRAM Rank
system.mem_ctrls1.rank0.memoryStateTime::IDLE 4888038776251                       # Time in different power states
system.mem_ctrls1.rank0.memoryStateTime::REF 169526760000                       # Time in different power states
system.mem_ctrls1.rank0.memoryStateTime::SREF            0                       # Time in different power states
system.mem_ctrls1.rank0.memoryStateTime::PRE_PDN            0                       # Time in different power states
system.mem_ctrls1.rank0.memoryStateTime::ACT  19276782250                       # Time in different power states
system.mem_ctrls1.rank0.memoryStateTime::ACT_PDN            0                       # Time in different power states
system.mem_ctrls1.power_state.pwrStateResidencyTicks::UNDEFINED 106637883438001                       # Cumulative time (in ticks) in various power states
system.cpu_voltage_domain.voltage                   1                       # Voltage in Volts
system.iobus.trans_dist::ReadReq                 2234                       # Transaction distribution
system.iobus.trans_dist::ReadResp                2234                       # Transaction distribution
system.iobus.trans_dist::WriteReq               22180                       # Transaction distribution
system.iobus.trans_dist::WriteResp              22180                       # Transaction distribution
system.iobus.pkt_count_system.pc.south_bridge.io_apic.int_master::system.ruby.l1_cntrl1.sequencer.pio-slave-port         1424                       # Packet count per connected master and slave (bytes)
system.iobus.pkt_count_system.pc.south_bridge.io_apic.int_master::total         1424                       # Packet count per connected master and slave (bytes)
system.iobus.pkt_count_system.ruby.l1_cntrl0.sequencer.mem-master-port::system.pc.south_bridge.ide.pio          204                       # Packet count per connected master and slave (bytes)
system.iobus.pkt_count_system.ruby.l1_cntrl0.sequencer.mem-master-port::system.pc.com_1.pio           12                       # Packet count per connected master and slave (bytes)
system.iobus.pkt_count_system.ruby.l1_cntrl0.sequencer.mem-master-port::system.ruby.l1_cntrl0.sequencer.pio-slave-port        10322                       # Packet count per connected master and slave (bytes)
system.iobus.pkt_count_system.ruby.l1_cntrl0.sequencer.mem-master-port::system.ruby.l1_cntrl1.sequencer.pio-slave-port           18                       # Packet count per connected master and slave (bytes)
system.iobus.pkt_count_system.ruby.l1_cntrl0.sequencer.mem-master-port::system.ruby.l1_cntrl2.sequencer.pio-slave-port            2                       # Packet count per connected master and slave (bytes)
system.iobus.pkt_count_system.ruby.l1_cntrl0.sequencer.mem-master-port::system.ruby.l1_cntrl3.sequencer.pio-slave-port           24                       # Packet count per connected master and slave (bytes)
system.iobus.pkt_count_system.ruby.l1_cntrl0.sequencer.mem-master-port::total        10582                       # Packet count per connected master and slave (bytes)
system.iobus.pkt_count_system.ruby.l1_cntrl1.sequencer.mem-master-port::system.pc.south_bridge.ide.pio          176                       # Packet count per connected master and slave (bytes)
system.iobus.pkt_count_system.ruby.l1_cntrl1.sequencer.mem-master-port::system.pc.com_1.pio         5602                       # Packet count per connected master and slave (bytes)
system.iobus.pkt_count_system.ruby.l1_cntrl1.sequencer.mem-master-port::system.ruby.l1_cntrl0.sequencer.pio-slave-port           18                       # Packet count per connected master and slave (bytes)
system.iobus.pkt_count_system.ruby.l1_cntrl1.sequencer.mem-master-port::system.ruby.l1_cntrl1.sequencer.pio-slave-port        10446                       # Packet count per connected master and slave (bytes)
system.iobus.pkt_count_system.ruby.l1_cntrl1.sequencer.mem-master-port::system.ruby.l1_cntrl2.sequencer.pio-slave-port           12                       # Packet count per connected master and slave (bytes)
system.iobus.pkt_count_system.ruby.l1_cntrl1.sequencer.mem-master-port::system.ruby.l1_cntrl3.sequencer.pio-slave-port           38                       # Packet count per connected master and slave (bytes)
system.iobus.pkt_count_system.ruby.l1_cntrl1.sequencer.mem-master-port::total        16292                       # Packet count per connected master and slave (bytes)
system.iobus.pkt_count_system.ruby.l1_cntrl2.sequencer.mem-master-port::system.pc.com_1.pio           10                       # Packet count per connected master and slave (bytes)
system.iobus.pkt_count_system.ruby.l1_cntrl2.sequencer.mem-master-port::system.ruby.l1_cntrl0.sequencer.pio-slave-port            4                       # Packet count per connected master and slave (bytes)
system.iobus.pkt_count_system.ruby.l1_cntrl2.sequencer.mem-master-port::system.ruby.l1_cntrl2.sequencer.pio-slave-port        10202                       # Packet count per connected master and slave (bytes)
system.iobus.pkt_count_system.ruby.l1_cntrl2.sequencer.mem-master-port::system.ruby.l1_cntrl3.sequencer.pio-slave-port            4                       # Packet count per connected master and slave (bytes)
system.iobus.pkt_count_system.ruby.l1_cntrl2.sequencer.mem-master-port::total        10220                       # Packet count per connected master and slave (bytes)
system.iobus.pkt_count_system.ruby.l1_cntrl3.sequencer.mem-master-port::system.pc.south_bridge.ide.pio           34                       # Packet count per connected master and slave (bytes)
system.iobus.pkt_count_system.ruby.l1_cntrl3.sequencer.mem-master-port::system.ruby.l1_cntrl0.sequencer.pio-slave-port            6                       # Packet count per connected master and slave (bytes)
system.iobus.pkt_count_system.ruby.l1_cntrl3.sequencer.mem-master-port::system.ruby.l1_cntrl1.sequencer.pio-slave-port            6                       # Packet count per connected master and slave (bytes)
system.iobus.pkt_count_system.ruby.l1_cntrl3.sequencer.mem-master-port::system.ruby.l1_cntrl3.sequencer.pio-slave-port        10264                       # Packet count per connected master and slave (bytes)
system.iobus.pkt_count_system.ruby.l1_cntrl3.sequencer.mem-master-port::total        10310                       # Packet count per connected master and slave (bytes)
system.iobus.pkt_count::total                   48828                       # Packet count per connected master and slave (bytes)
system.iobus.pkt_size_system.pc.south_bridge.io_apic.int_master::system.ruby.l1_cntrl1.sequencer.pio-slave-port         2848                       # Cumulative packet size per connected master and slave (bytes)
system.iobus.pkt_size_system.pc.south_bridge.io_apic.int_master::total         2848                       # Cumulative packet size per connected master and slave (bytes)
system.iobus.pkt_size_system.ruby.l1_cntrl0.sequencer.mem-master-port::system.pc.south_bridge.ide.pio          120                       # Cumulative packet size per connected master and slave (bytes)
system.iobus.pkt_size_system.ruby.l1_cntrl0.sequencer.mem-master-port::system.pc.com_1.pio            6                       # Cumulative packet size per connected master and slave (bytes)
system.iobus.pkt_size_system.ruby.l1_cntrl0.sequencer.mem-master-port::system.ruby.l1_cntrl0.sequencer.pio-slave-port        20644                       # Cumulative packet size per connected master and slave (bytes)
system.iobus.pkt_size_system.ruby.l1_cntrl0.sequencer.mem-master-port::system.ruby.l1_cntrl1.sequencer.pio-slave-port           36                       # Cumulative packet size per connected master and slave (bytes)
system.iobus.pkt_size_system.ruby.l1_cntrl0.sequencer.mem-master-port::system.ruby.l1_cntrl2.sequencer.pio-slave-port            4                       # Cumulative packet size per connected master and slave (bytes)
system.iobus.pkt_size_system.ruby.l1_cntrl0.sequencer.mem-master-port::system.ruby.l1_cntrl3.sequencer.pio-slave-port           48                       # Cumulative packet size per connected master and slave (bytes)
system.iobus.pkt_size_system.ruby.l1_cntrl0.sequencer.mem-master-port::total        20858                       # Cumulative packet size per connected master and slave (bytes)
system.iobus.pkt_size_system.ruby.l1_cntrl1.sequencer.mem-master-port::system.pc.south_bridge.ide.pio           94                       # Cumulative packet size per connected master and slave (bytes)
system.iobus.pkt_size_system.ruby.l1_cntrl1.sequencer.mem-master-port::system.pc.com_1.pio         2801                       # Cumulative packet size per connected master and slave (bytes)
system.iobus.pkt_size_system.ruby.l1_cntrl1.sequencer.mem-master-port::system.ruby.l1_cntrl0.sequencer.pio-slave-port           36                       # Cumulative packet size per connected master and slave (bytes)
system.iobus.pkt_size_system.ruby.l1_cntrl1.sequencer.mem-master-port::system.ruby.l1_cntrl1.sequencer.pio-slave-port        20892                       # Cumulative packet size per connected master and slave (bytes)
system.iobus.pkt_size_system.ruby.l1_cntrl1.sequencer.mem-master-port::system.ruby.l1_cntrl2.sequencer.pio-slave-port           24                       # Cumulative packet size per connected master and slave (bytes)
system.iobus.pkt_size_system.ruby.l1_cntrl1.sequencer.mem-master-port::system.ruby.l1_cntrl3.sequencer.pio-slave-port           76                       # Cumulative packet size per connected master and slave (bytes)
system.iobus.pkt_size_system.ruby.l1_cntrl1.sequencer.mem-master-port::total        23923                       # Cumulative packet size per connected master and slave (bytes)
system.iobus.pkt_size_system.ruby.l1_cntrl2.sequencer.mem-master-port::system.pc.com_1.pio            5                       # Cumulative packet size per connected master and slave (bytes)
system.iobus.pkt_size_system.ruby.l1_cntrl2.sequencer.mem-master-port::system.ruby.l1_cntrl0.sequencer.pio-slave-port            8                       # Cumulative packet size per connected master and slave (bytes)
system.iobus.pkt_size_system.ruby.l1_cntrl2.sequencer.mem-master-port::system.ruby.l1_cntrl2.sequencer.pio-slave-port        20404                       # Cumulative packet size per connected master and slave (bytes)
system.iobus.pkt_size_system.ruby.l1_cntrl2.sequencer.mem-master-port::system.ruby.l1_cntrl3.sequencer.pio-slave-port            8                       # Cumulative packet size per connected master and slave (bytes)
system.iobus.pkt_size_system.ruby.l1_cntrl2.sequencer.mem-master-port::total        20425                       # Cumulative packet size per connected master and slave (bytes)
system.iobus.pkt_size_system.ruby.l1_cntrl3.sequencer.mem-master-port::system.pc.south_bridge.ide.pio           20                       # Cumulative packet size per connected master and slave (bytes)
system.iobus.pkt_size_system.ruby.l1_cntrl3.sequencer.mem-master-port::system.ruby.l1_cntrl0.sequencer.pio-slave-port           12                       # Cumulative packet size per connected master and slave (bytes)
system.iobus.pkt_size_system.ruby.l1_cntrl3.sequencer.mem-master-port::system.ruby.l1_cntrl1.sequencer.pio-slave-port           12                       # Cumulative packet size per connected master and slave (bytes)
system.iobus.pkt_size_system.ruby.l1_cntrl3.sequencer.mem-master-port::system.ruby.l1_cntrl3.sequencer.pio-slave-port        20528                       # Cumulative packet size per connected master and slave (bytes)
system.iobus.pkt_size_system.ruby.l1_cntrl3.sequencer.mem-master-port::total        20572                       # Cumulative packet size per connected master and slave (bytes)
system.iobus.pkt_size::total                    88626                       # Cumulative packet size per connected master and slave (bytes)
system.iobus.reqLayer2.occupancy               342000                       # Layer occupancy (ticks)
system.iobus.reqLayer2.utilization                0.0                       # Layer utilization (%)
system.iobus.power_state.pwrStateResidencyTicks::UNDEFINED 106637883438001                       # Cumulative time (in ticks) in various power states
system.iobus.reqLayer19.occupancy            10225981                       # Layer occupancy (ticks)
system.iobus.reqLayer19.utilization               0.0                       # Layer utilization (%)
system.iobus.reqLayer17.occupancy            10372426                       # Layer occupancy (ticks)
system.iobus.reqLayer17.utilization               0.0                       # Layer utilization (%)
system.iobus.reqLayer12.occupancy             3562000                       # Layer occupancy (ticks)
system.iobus.reqLayer12.utilization               0.0                       # Layer utilization (%)
system.iobus.reqLayer18.occupancy            11908441                       # Layer occupancy (ticks)
system.iobus.reqLayer18.utilization               0.0                       # Layer utilization (%)
system.iobus.respLayer9.occupancy             7731000                       # Layer occupancy (ticks)
system.iobus.respLayer9.utilization               0.0                       # Layer utilization (%)
system.iobus.respLayer5.occupancy            12931500                       # Layer occupancy (ticks)
system.iobus.respLayer5.utilization               0.0                       # Layer utilization (%)
system.iobus.respLayer7.occupancy             7664500                       # Layer occupancy (ticks)
system.iobus.respLayer7.utilization               0.0                       # Layer utilization (%)
system.iobus.respLayer0.occupancy             1061991                       # Layer occupancy (ticks)
system.iobus.respLayer0.utilization               0.0                       # Layer utilization (%)
system.iobus.respLayer3.occupancy             7918000                       # Layer occupancy (ticks)
system.iobus.respLayer3.utilization               0.0                       # Layer utilization (%)
system.iobus.reqLayer20.occupancy            10369444                       # Layer occupancy (ticks)
system.iobus.reqLayer20.utilization               0.0                       # Layer utilization (%)

---------- End Simulation Statistics   ----------
