
---------- Begin Simulation Statistics ----------
final_tick                                 1388438000                       # Number of ticks from beginning of simulation (restored from checkpoints and never reset)
host_inst_rate                                 295294                       # Simulator instruction rate (inst/s)
host_mem_usage                                 795868                       # Number of bytes of host memory used
host_op_rate                                   537486                       # Simulator op (including micro ops) rate (op/s)
host_seconds                                     1.83                       # Real time elapsed on the host
host_tick_rate                              760779952                       # Simulator tick rate (ticks/s)
sim_freq                                 1000000000000                       # Frequency of simulated ticks
sim_insts                                      538891                       # Number of instructions simulated
sim_ops                                        980916                       # Number of ops (including micro ops) simulated
sim_seconds                                  0.001388                       # Number of seconds simulated
sim_ticks                                  1388438000                       # Number of ticks simulated
system.cpu0.Branches                            93405                       # Number of branches fetched
system.cpu0.committedInsts                     538891                       # Number of instructions committed
system.cpu0.committedOps                       980916                       # Number of ops (including micro ops) committed
system.cpu0.dtb.rdAccesses                     151746                       # TLB accesses on read requests
system.cpu0.dtb.rdMisses                          267                       # TLB misses on read requests
system.cpu0.dtb.wrAccesses                      69226                       # TLB accesses on write requests
system.cpu0.dtb.wrMisses                           64                       # TLB misses on write requests
system.cpu0.idle_fraction                           0                       # Percentage of idle cycles
system.cpu0.itb.rdAccesses                          0                       # TLB accesses on read requests
system.cpu0.itb.rdMisses                            0                       # TLB misses on read requests
system.cpu0.itb.wrAccesses                     708138                       # TLB accesses on write requests
system.cpu0.itb.wrMisses                          262                       # TLB misses on write requests
system.cpu0.not_idle_fraction                       1                       # Percentage of non-idle cycles
system.cpu0.numCycles                         2776875                       # number of cpu cycles simulated
system.cpu0.numWorkItemsCompleted                   0                       # number of work items this cpu completed
system.cpu0.numWorkItemsStarted                     0                       # number of work items this cpu started
system.cpu0.num_busy_cycles                   2776875                       # Number of busy cycles
system.cpu0.num_cc_register_reads              458593                       # number of times the CC registers were read
system.cpu0.num_cc_register_writes             410834                       # number of times the CC registers were written
system.cpu0.num_conditional_control_insts        57844                       # number of instructions that are conditional controls
system.cpu0.num_fp_alu_accesses                 52699                       # Number of float alu accesses
system.cpu0.num_fp_insts                        52699                       # number of float instructions
system.cpu0.num_fp_register_reads               51361                       # number of times the floating registers were read
system.cpu0.num_fp_register_writes              40319                       # number of times the floating registers were written
system.cpu0.num_func_calls                      28815                       # number of times a function call or return occured
system.cpu0.num_idle_cycles                         0                       # Number of idle cycles
system.cpu0.num_int_alu_accesses               953816                       # Number of integer alu accesses
system.cpu0.num_int_insts                      953816                       # number of integer instructions
system.cpu0.num_int_register_reads            1942495                       # number of times the integer registers were read
system.cpu0.num_int_register_writes            784688                       # number of times the integer registers were written
system.cpu0.num_load_insts                     151725                       # Number of load instructions
system.cpu0.num_mem_refs                       220951                       # number of memory refs
system.cpu0.num_store_insts                     69226                       # Number of store instructions
system.cpu0.num_vec_alu_accesses                    0                       # Number of vector alu accesses
system.cpu0.num_vec_insts                           0                       # number of vector instructions
system.cpu0.num_vec_register_reads                  0                       # number of times the vector registers were read
system.cpu0.num_vec_register_writes                 0                       # number of times the vector registers were written
system.cpu0.op_class::No_OpClass                 3742      0.38%      0.38% # Class of executed instruction
system.cpu0.op_class::IntAlu                   725359     73.94%     74.32% # Class of executed instruction
system.cpu0.op_class::IntMult                    4285      0.44%     74.76% # Class of executed instruction
system.cpu0.op_class::IntDiv                     2154      0.22%     74.98% # Class of executed instruction
system.cpu0.op_class::FloatAdd                   8797      0.90%     75.87% # Class of executed instruction
system.cpu0.op_class::FloatCmp                      0      0.00%     75.87% # Class of executed instruction
system.cpu0.op_class::FloatCvt                     96      0.01%     75.88% # Class of executed instruction
system.cpu0.op_class::FloatMult                     0      0.00%     75.88% # Class of executed instruction
system.cpu0.op_class::FloatMultAcc                  0      0.00%     75.88% # Class of executed instruction
system.cpu0.op_class::FloatDiv                      0      0.00%     75.88% # Class of executed instruction
system.cpu0.op_class::FloatMisc                     0      0.00%     75.88% # Class of executed instruction
system.cpu0.op_class::FloatSqrt                     0      0.00%     75.88% # Class of executed instruction
system.cpu0.op_class::SimdAdd                    2014      0.21%     76.09% # Class of executed instruction
system.cpu0.op_class::SimdAddAcc                    0      0.00%     76.09% # Class of executed instruction
system.cpu0.op_class::SimdAlu                    2610      0.27%     76.36% # Class of executed instruction
system.cpu0.op_class::SimdCmp                       6      0.00%     76.36% # Class of executed instruction
system.cpu0.op_class::SimdCvt                    3642      0.37%     76.73% # Class of executed instruction
system.cpu0.op_class::SimdMisc                   2241      0.23%     76.96% # Class of executed instruction
system.cpu0.op_class::SimdMult                      0      0.00%     76.96% # Class of executed instruction
system.cpu0.op_class::SimdMultAcc                   0      0.00%     76.96% # Class of executed instruction
system.cpu0.op_class::SimdShift                   884      0.09%     77.05% # Class of executed instruction
system.cpu0.op_class::SimdShiftAcc                  0      0.00%     77.05% # Class of executed instruction
system.cpu0.op_class::SimdDiv                       0      0.00%     77.05% # Class of executed instruction
system.cpu0.op_class::SimdSqrt                      0      0.00%     77.05% # Class of executed instruction
system.cpu0.op_class::SimdFloatAdd               4236      0.43%     77.48% # Class of executed instruction
system.cpu0.op_class::SimdFloatAlu                  0      0.00%     77.48% # Class of executed instruction
system.cpu0.op_class::SimdFloatCmp                  0      0.00%     77.48% # Class of executed instruction
system.cpu0.op_class::SimdFloatCvt                  0      0.00%     77.48% # Class of executed instruction
system.cpu0.op_class::SimdFloatDiv                  0      0.00%     77.48% # Class of executed instruction
system.cpu0.op_class::SimdFloatMisc                 0      0.00%     77.48% # Class of executed instruction
system.cpu0.op_class::SimdFloatMult                 0      0.00%     77.48% # Class of executed instruction
system.cpu0.op_class::SimdFloatMultAcc              0      0.00%     77.48% # Class of executed instruction
system.cpu0.op_class::SimdFloatSqrt                 0      0.00%     77.48% # Class of executed instruction
system.cpu0.op_class::SimdReduceAdd                 0      0.00%     77.48% # Class of executed instruction
system.cpu0.op_class::SimdReduceAlu                 0      0.00%     77.48% # Class of executed instruction
system.cpu0.op_class::SimdReduceCmp                 0      0.00%     77.48% # Class of executed instruction
system.cpu0.op_class::SimdFloatReduceAdd            0      0.00%     77.48% # Class of executed instruction
system.cpu0.op_class::SimdFloatReduceCmp            0      0.00%     77.48% # Class of executed instruction
system.cpu0.op_class::SimdAes                       0      0.00%     77.48% # Class of executed instruction
system.cpu0.op_class::SimdAesMix                    0      0.00%     77.48% # Class of executed instruction
system.cpu0.op_class::SimdSha1Hash                  0      0.00%     77.48% # Class of executed instruction
system.cpu0.op_class::SimdSha1Hash2                 0      0.00%     77.48% # Class of executed instruction
system.cpu0.op_class::SimdSha256Hash                0      0.00%     77.48% # Class of executed instruction
system.cpu0.op_class::SimdSha256Hash2               0      0.00%     77.48% # Class of executed instruction
system.cpu0.op_class::SimdShaSigma2                 0      0.00%     77.48% # Class of executed instruction
system.cpu0.op_class::SimdShaSigma3                 0      0.00%     77.48% # Class of executed instruction
system.cpu0.op_class::SimdPredAlu                   0      0.00%     77.48% # Class of executed instruction
system.cpu0.op_class::MemRead                  134760     13.74%     91.21% # Class of executed instruction
system.cpu0.op_class::MemWrite                  58812      6.00%     97.21% # Class of executed instruction
system.cpu0.op_class::FloatMemRead              16965      1.73%     98.94% # Class of executed instruction
system.cpu0.op_class::FloatMemWrite             10414      1.06%    100.00% # Class of executed instruction
system.cpu0.op_class::IprAccess                     0      0.00%    100.00% # Class of executed instruction
system.cpu0.op_class::InstPrefetch                  0      0.00%    100.00% # Class of executed instruction
system.cpu0.op_class::total                    981017                       # Class of executed instruction
system.cpu0.workload.numSyscalls                   65                       # Number of system calls
system.cpu1.committedInsts                          0                       # Number of instructions committed
system.cpu1.committedOps                            0                       # Number of ops (including micro ops) committed
system.cpu1.dtb.rdAccesses                          0                       # TLB accesses on read requests
system.cpu1.dtb.rdMisses                            0                       # TLB misses on read requests
system.cpu1.dtb.wrAccesses                          0                       # TLB accesses on write requests
system.cpu1.dtb.wrMisses                            0                       # TLB misses on write requests
system.cpu1.idle_fraction                           1                       # Percentage of idle cycles
system.cpu1.itb.rdAccesses                          0                       # TLB accesses on read requests
system.cpu1.itb.rdMisses                            0                       # TLB misses on read requests
system.cpu1.itb.wrAccesses                          0                       # TLB accesses on write requests
system.cpu1.itb.wrMisses                            0                       # TLB misses on write requests
system.cpu1.not_idle_fraction                       0                       # Percentage of non-idle cycles
system.cpu1.numCycles                               0                       # number of cpu cycles simulated
system.cpu1.numWorkItemsCompleted                   0                       # number of work items this cpu completed
system.cpu1.numWorkItemsStarted                     0                       # number of work items this cpu started
system.cpu1.num_busy_cycles                         0                       # Number of busy cycles
system.cpu1.num_conditional_control_insts            0                       # number of instructions that are conditional controls
system.cpu1.num_fp_alu_accesses                     0                       # Number of float alu accesses
system.cpu1.num_fp_insts                            0                       # number of float instructions
system.cpu1.num_fp_register_reads                   0                       # number of times the floating registers were read
system.cpu1.num_fp_register_writes                  0                       # number of times the floating registers were written
system.cpu1.num_func_calls                          0                       # number of times a function call or return occured
system.cpu1.num_idle_cycles                         0                       # Number of idle cycles
system.cpu1.num_int_alu_accesses                    0                       # Number of integer alu accesses
system.cpu1.num_int_insts                           0                       # number of integer instructions
system.cpu1.num_int_register_reads                  0                       # number of times the integer registers were read
system.cpu1.num_int_register_writes                 0                       # number of times the integer registers were written
system.cpu1.num_load_insts                          0                       # Number of load instructions
system.cpu1.num_mem_refs                            0                       # number of memory refs
system.cpu1.num_store_insts                         0                       # Number of store instructions
system.cpu1.num_vec_alu_accesses                    0                       # Number of vector alu accesses
system.cpu1.num_vec_insts                           0                       # number of vector instructions
system.cpu1.num_vec_register_reads                  0                       # number of times the vector registers were read
system.cpu1.num_vec_register_writes                 0                       # number of times the vector registers were written
system.cpu1.op_class::No_OpClass                    0                       # Class of executed instruction
system.cpu1.op_class::IntAlu                        0                       # Class of executed instruction
system.cpu1.op_class::IntMult                       0                       # Class of executed instruction
system.cpu1.op_class::IntDiv                        0                       # Class of executed instruction
system.cpu1.op_class::FloatAdd                      0                       # Class of executed instruction
system.cpu1.op_class::FloatCmp                      0                       # Class of executed instruction
system.cpu1.op_class::FloatCvt                      0                       # Class of executed instruction
system.cpu1.op_class::FloatMult                     0                       # Class of executed instruction
system.cpu1.op_class::FloatMultAcc                  0                       # Class of executed instruction
system.cpu1.op_class::FloatDiv                      0                       # Class of executed instruction
system.cpu1.op_class::FloatMisc                     0                       # Class of executed instruction
system.cpu1.op_class::FloatSqrt                     0                       # Class of executed instruction
system.cpu1.op_class::SimdAdd                       0                       # Class of executed instruction
system.cpu1.op_class::SimdAddAcc                    0                       # Class of executed instruction
system.cpu1.op_class::SimdAlu                       0                       # Class of executed instruction
system.cpu1.op_class::SimdCmp                       0                       # Class of executed instruction
system.cpu1.op_class::SimdCvt                       0                       # Class of executed instruction
system.cpu1.op_class::SimdMisc                      0                       # Class of executed instruction
system.cpu1.op_class::SimdMult                      0                       # Class of executed instruction
system.cpu1.op_class::SimdMultAcc                   0                       # Class of executed instruction
system.cpu1.op_class::SimdShift                     0                       # Class of executed instruction
system.cpu1.op_class::SimdShiftAcc                  0                       # Class of executed instruction
system.cpu1.op_class::SimdDiv                       0                       # Class of executed instruction
system.cpu1.op_class::SimdSqrt                      0                       # Class of executed instruction
system.cpu1.op_class::SimdFloatAdd                  0                       # Class of executed instruction
system.cpu1.op_class::SimdFloatAlu                  0                       # Class of executed instruction
system.cpu1.op_class::SimdFloatCmp                  0                       # Class of executed instruction
system.cpu1.op_class::SimdFloatCvt                  0                       # Class of executed instruction
system.cpu1.op_class::SimdFloatDiv                  0                       # Class of executed instruction
system.cpu1.op_class::SimdFloatMisc                 0                       # Class of executed instruction
system.cpu1.op_class::SimdFloatMult                 0                       # Class of executed instruction
system.cpu1.op_class::SimdFloatMultAcc              0                       # Class of executed instruction
system.cpu1.op_class::SimdFloatSqrt                 0                       # Class of executed instruction
system.cpu1.op_class::SimdReduceAdd                 0                       # Class of executed instruction
system.cpu1.op_class::SimdReduceAlu                 0                       # Class of executed instruction
system.cpu1.op_class::SimdReduceCmp                 0                       # Class of executed instruction
system.cpu1.op_class::SimdFloatReduceAdd            0                       # Class of executed instruction
system.cpu1.op_class::SimdFloatReduceCmp            0                       # Class of executed instruction
system.cpu1.op_class::SimdAes                       0                       # Class of executed instruction
system.cpu1.op_class::SimdAesMix                    0                       # Class of executed instruction
system.cpu1.op_class::SimdSha1Hash                  0                       # Class of executed instruction
system.cpu1.op_class::SimdSha1Hash2                 0                       # Class of executed instruction
system.cpu1.op_class::SimdSha256Hash                0                       # Class of executed instruction
system.cpu1.op_class::SimdSha256Hash2               0                       # Class of executed instruction
system.cpu1.op_class::SimdShaSigma2                 0                       # Class of executed instruction
system.cpu1.op_class::SimdShaSigma3                 0                       # Class of executed instruction
system.cpu1.op_class::SimdPredAlu                   0                       # Class of executed instruction
system.cpu1.op_class::MemRead                       0                       # Class of executed instruction
system.cpu1.op_class::MemWrite                      0                       # Class of executed instruction
system.cpu1.op_class::FloatMemRead                  0                       # Class of executed instruction
system.cpu1.op_class::FloatMemWrite                 0                       # Class of executed instruction
system.cpu1.op_class::IprAccess                     0                       # Class of executed instruction
system.cpu1.op_class::InstPrefetch                  0                       # Class of executed instruction
system.cpu1.op_class::total                         0                       # Class of executed instruction
system.cpu2.committedInsts                          0                       # Number of instructions committed
system.cpu2.committedOps                            0                       # Number of ops (including micro ops) committed
system.cpu2.dtb.rdAccesses                          0                       # TLB accesses on read requests
system.cpu2.dtb.rdMisses                            0                       # TLB misses on read requests
system.cpu2.dtb.wrAccesses                          0                       # TLB accesses on write requests
system.cpu2.dtb.wrMisses                            0                       # TLB misses on write requests
system.cpu2.idle_fraction                           1                       # Percentage of idle cycles
system.cpu2.itb.rdAccesses                          0                       # TLB accesses on read requests
system.cpu2.itb.rdMisses                            0                       # TLB misses on read requests
system.cpu2.itb.wrAccesses                          0                       # TLB accesses on write requests
system.cpu2.itb.wrMisses                            0                       # TLB misses on write requests
system.cpu2.not_idle_fraction                       0                       # Percentage of non-idle cycles
system.cpu2.numCycles                               0                       # number of cpu cycles simulated
system.cpu2.numWorkItemsCompleted                   0                       # number of work items this cpu completed
system.cpu2.numWorkItemsStarted                     0                       # number of work items this cpu started
system.cpu2.num_busy_cycles                         0                       # Number of busy cycles
system.cpu2.num_conditional_control_insts            0                       # number of instructions that are conditional controls
system.cpu2.num_fp_alu_accesses                     0                       # Number of float alu accesses
system.cpu2.num_fp_insts                            0                       # number of float instructions
system.cpu2.num_fp_register_reads                   0                       # number of times the floating registers were read
system.cpu2.num_fp_register_writes                  0                       # number of times the floating registers were written
system.cpu2.num_func_calls                          0                       # number of times a function call or return occured
system.cpu2.num_idle_cycles                         0                       # Number of idle cycles
system.cpu2.num_int_alu_accesses                    0                       # Number of integer alu accesses
system.cpu2.num_int_insts                           0                       # number of integer instructions
system.cpu2.num_int_register_reads                  0                       # number of times the integer registers were read
system.cpu2.num_int_register_writes                 0                       # number of times the integer registers were written
system.cpu2.num_load_insts                          0                       # Number of load instructions
system.cpu2.num_mem_refs                            0                       # number of memory refs
system.cpu2.num_store_insts                         0                       # Number of store instructions
system.cpu2.num_vec_alu_accesses                    0                       # Number of vector alu accesses
system.cpu2.num_vec_insts                           0                       # number of vector instructions
system.cpu2.num_vec_register_reads                  0                       # number of times the vector registers were read
system.cpu2.num_vec_register_writes                 0                       # number of times the vector registers were written
system.cpu2.op_class::No_OpClass                    0                       # Class of executed instruction
system.cpu2.op_class::IntAlu                        0                       # Class of executed instruction
system.cpu2.op_class::IntMult                       0                       # Class of executed instruction
system.cpu2.op_class::IntDiv                        0                       # Class of executed instruction
system.cpu2.op_class::FloatAdd                      0                       # Class of executed instruction
system.cpu2.op_class::FloatCmp                      0                       # Class of executed instruction
system.cpu2.op_class::FloatCvt                      0                       # Class of executed instruction
system.cpu2.op_class::FloatMult                     0                       # Class of executed instruction
system.cpu2.op_class::FloatMultAcc                  0                       # Class of executed instruction
system.cpu2.op_class::FloatDiv                      0                       # Class of executed instruction
system.cpu2.op_class::FloatMisc                     0                       # Class of executed instruction
system.cpu2.op_class::FloatSqrt                     0                       # Class of executed instruction
system.cpu2.op_class::SimdAdd                       0                       # Class of executed instruction
system.cpu2.op_class::SimdAddAcc                    0                       # Class of executed instruction
system.cpu2.op_class::SimdAlu                       0                       # Class of executed instruction
system.cpu2.op_class::SimdCmp                       0                       # Class of executed instruction
system.cpu2.op_class::SimdCvt                       0                       # Class of executed instruction
system.cpu2.op_class::SimdMisc                      0                       # Class of executed instruction
system.cpu2.op_class::SimdMult                      0                       # Class of executed instruction
system.cpu2.op_class::SimdMultAcc                   0                       # Class of executed instruction
system.cpu2.op_class::SimdShift                     0                       # Class of executed instruction
system.cpu2.op_class::SimdShiftAcc                  0                       # Class of executed instruction
system.cpu2.op_class::SimdDiv                       0                       # Class of executed instruction
system.cpu2.op_class::SimdSqrt                      0                       # Class of executed instruction
system.cpu2.op_class::SimdFloatAdd                  0                       # Class of executed instruction
system.cpu2.op_class::SimdFloatAlu                  0                       # Class of executed instruction
system.cpu2.op_class::SimdFloatCmp                  0                       # Class of executed instruction
system.cpu2.op_class::SimdFloatCvt                  0                       # Class of executed instruction
system.cpu2.op_class::SimdFloatDiv                  0                       # Class of executed instruction
system.cpu2.op_class::SimdFloatMisc                 0                       # Class of executed instruction
system.cpu2.op_class::SimdFloatMult                 0                       # Class of executed instruction
system.cpu2.op_class::SimdFloatMultAcc              0                       # Class of executed instruction
system.cpu2.op_class::SimdFloatSqrt                 0                       # Class of executed instruction
system.cpu2.op_class::SimdReduceAdd                 0                       # Class of executed instruction
system.cpu2.op_class::SimdReduceAlu                 0                       # Class of executed instruction
system.cpu2.op_class::SimdReduceCmp                 0                       # Class of executed instruction
system.cpu2.op_class::SimdFloatReduceAdd            0                       # Class of executed instruction
system.cpu2.op_class::SimdFloatReduceCmp            0                       # Class of executed instruction
system.cpu2.op_class::SimdAes                       0                       # Class of executed instruction
system.cpu2.op_class::SimdAesMix                    0                       # Class of executed instruction
system.cpu2.op_class::SimdSha1Hash                  0                       # Class of executed instruction
system.cpu2.op_class::SimdSha1Hash2                 0                       # Class of executed instruction
system.cpu2.op_class::SimdSha256Hash                0                       # Class of executed instruction
system.cpu2.op_class::SimdSha256Hash2               0                       # Class of executed instruction
system.cpu2.op_class::SimdShaSigma2                 0                       # Class of executed instruction
system.cpu2.op_class::SimdShaSigma3                 0                       # Class of executed instruction
system.cpu2.op_class::SimdPredAlu                   0                       # Class of executed instruction
system.cpu2.op_class::MemRead                       0                       # Class of executed instruction
system.cpu2.op_class::MemWrite                      0                       # Class of executed instruction
system.cpu2.op_class::FloatMemRead                  0                       # Class of executed instruction
system.cpu2.op_class::FloatMemWrite                 0                       # Class of executed instruction
system.cpu2.op_class::IprAccess                     0                       # Class of executed instruction
system.cpu2.op_class::InstPrefetch                  0                       # Class of executed instruction
system.cpu2.op_class::total                         0                       # Class of executed instruction
system.cpu3.committedInsts                          0                       # Number of instructions committed
system.cpu3.committedOps                            0                       # Number of ops (including micro ops) committed
system.cpu3.dtb.rdAccesses                          0                       # TLB accesses on read requests
system.cpu3.dtb.rdMisses                            0                       # TLB misses on read requests
system.cpu3.dtb.wrAccesses                          0                       # TLB accesses on write requests
system.cpu3.dtb.wrMisses                            0                       # TLB misses on write requests
system.cpu3.idle_fraction                           1                       # Percentage of idle cycles
system.cpu3.itb.rdAccesses                          0                       # TLB accesses on read requests
system.cpu3.itb.rdMisses                            0                       # TLB misses on read requests
system.cpu3.itb.wrAccesses                          0                       # TLB accesses on write requests
system.cpu3.itb.wrMisses                            0                       # TLB misses on write requests
system.cpu3.not_idle_fraction                       0                       # Percentage of non-idle cycles
system.cpu3.numCycles                               0                       # number of cpu cycles simulated
system.cpu3.numWorkItemsCompleted                   0                       # number of work items this cpu completed
system.cpu3.numWorkItemsStarted                     0                       # number of work items this cpu started
system.cpu3.num_busy_cycles                         0                       # Number of busy cycles
system.cpu3.num_conditional_control_insts            0                       # number of instructions that are conditional controls
system.cpu3.num_fp_alu_accesses                     0                       # Number of float alu accesses
system.cpu3.num_fp_insts                            0                       # number of float instructions
system.cpu3.num_fp_register_reads                   0                       # number of times the floating registers were read
system.cpu3.num_fp_register_writes                  0                       # number of times the floating registers were written
system.cpu3.num_func_calls                          0                       # number of times a function call or return occured
system.cpu3.num_idle_cycles                         0                       # Number of idle cycles
system.cpu3.num_int_alu_accesses                    0                       # Number of integer alu accesses
system.cpu3.num_int_insts                           0                       # number of integer instructions
system.cpu3.num_int_register_reads                  0                       # number of times the integer registers were read
system.cpu3.num_int_register_writes                 0                       # number of times the integer registers were written
system.cpu3.num_load_insts                          0                       # Number of load instructions
system.cpu3.num_mem_refs                            0                       # number of memory refs
system.cpu3.num_store_insts                         0                       # Number of store instructions
system.cpu3.num_vec_alu_accesses                    0                       # Number of vector alu accesses
system.cpu3.num_vec_insts                           0                       # number of vector instructions
system.cpu3.num_vec_register_reads                  0                       # number of times the vector registers were read
system.cpu3.num_vec_register_writes                 0                       # number of times the vector registers were written
system.cpu3.op_class::No_OpClass                    0                       # Class of executed instruction
system.cpu3.op_class::IntAlu                        0                       # Class of executed instruction
system.cpu3.op_class::IntMult                       0                       # Class of executed instruction
system.cpu3.op_class::IntDiv                        0                       # Class of executed instruction
system.cpu3.op_class::FloatAdd                      0                       # Class of executed instruction
system.cpu3.op_class::FloatCmp                      0                       # Class of executed instruction
system.cpu3.op_class::FloatCvt                      0                       # Class of executed instruction
system.cpu3.op_class::FloatMult                     0                       # Class of executed instruction
system.cpu3.op_class::FloatMultAcc                  0                       # Class of executed instruction
system.cpu3.op_class::FloatDiv                      0                       # Class of executed instruction
system.cpu3.op_class::FloatMisc                     0                       # Class of executed instruction
system.cpu3.op_class::FloatSqrt                     0                       # Class of executed instruction
system.cpu3.op_class::SimdAdd                       0                       # Class of executed instruction
system.cpu3.op_class::SimdAddAcc                    0                       # Class of executed instruction
system.cpu3.op_class::SimdAlu                       0                       # Class of executed instruction
system.cpu3.op_class::SimdCmp                       0                       # Class of executed instruction
system.cpu3.op_class::SimdCvt                       0                       # Class of executed instruction
system.cpu3.op_class::SimdMisc                      0                       # Class of executed instruction
system.cpu3.op_class::SimdMult                      0                       # Class of executed instruction
system.cpu3.op_class::SimdMultAcc                   0                       # Class of executed instruction
system.cpu3.op_class::SimdShift                     0                       # Class of executed instruction
system.cpu3.op_class::SimdShiftAcc                  0                       # Class of executed instruction
system.cpu3.op_class::SimdDiv                       0                       # Class of executed instruction
system.cpu3.op_class::SimdSqrt                      0                       # Class of executed instruction
system.cpu3.op_class::SimdFloatAdd                  0                       # Class of executed instruction
system.cpu3.op_class::SimdFloatAlu                  0                       # Class of executed instruction
system.cpu3.op_class::SimdFloatCmp                  0                       # Class of executed instruction
system.cpu3.op_class::SimdFloatCvt                  0                       # Class of executed instruction
system.cpu3.op_class::SimdFloatDiv                  0                       # Class of executed instruction
system.cpu3.op_class::SimdFloatMisc                 0                       # Class of executed instruction
system.cpu3.op_class::SimdFloatMult                 0                       # Class of executed instruction
system.cpu3.op_class::SimdFloatMultAcc              0                       # Class of executed instruction
system.cpu3.op_class::SimdFloatSqrt                 0                       # Class of executed instruction
system.cpu3.op_class::SimdReduceAdd                 0                       # Class of executed instruction
system.cpu3.op_class::SimdReduceAlu                 0                       # Class of executed instruction
system.cpu3.op_class::SimdReduceCmp                 0                       # Class of executed instruction
system.cpu3.op_class::SimdFloatReduceAdd            0                       # Class of executed instruction
system.cpu3.op_class::SimdFloatReduceCmp            0                       # Class of executed instruction
system.cpu3.op_class::SimdAes                       0                       # Class of executed instruction
system.cpu3.op_class::SimdAesMix                    0                       # Class of executed instruction
system.cpu3.op_class::SimdSha1Hash                  0                       # Class of executed instruction
system.cpu3.op_class::SimdSha1Hash2                 0                       # Class of executed instruction
system.cpu3.op_class::SimdSha256Hash                0                       # Class of executed instruction
system.cpu3.op_class::SimdSha256Hash2               0                       # Class of executed instruction
system.cpu3.op_class::SimdShaSigma2                 0                       # Class of executed instruction
system.cpu3.op_class::SimdShaSigma3                 0                       # Class of executed instruction
system.cpu3.op_class::SimdPredAlu                   0                       # Class of executed instruction
system.cpu3.op_class::MemRead                       0                       # Class of executed instruction
system.cpu3.op_class::MemWrite                      0                       # Class of executed instruction
system.cpu3.op_class::FloatMemRead                  0                       # Class of executed instruction
system.cpu3.op_class::FloatMemWrite                 0                       # Class of executed instruction
system.cpu3.op_class::IprAccess                     0                       # Class of executed instruction
system.cpu3.op_class::InstPrefetch                  0                       # Class of executed instruction
system.cpu3.op_class::total                         0                       # Class of executed instruction
system.ruby.Directory_Controller.I.deallocTBE |        1117     24.65%     24.65% |        1171     25.84%     50.50% |        1125     24.83%     75.33% |        1118     24.67%    100.00%
system.ruby.Directory_Controller.I.deallocTBE::total         4531                      
system.ruby.Directory_Controller.I_GetML1C1_0.Progress |         321     24.85%     24.85% |         332     25.70%     50.54% |         317     24.54%     75.08% |         322     24.92%    100.00%
system.ruby.Directory_Controller.I_GetML1C1_0.Progress::total         1292                      
system.ruby.Directory_Controller.I_GetSL1C1_0.Progress |        1052     24.68%     24.68% |        1095     25.69%     50.36% |        1064     24.96%     75.32% |        1052     24.68%    100.00%
system.ruby.Directory_Controller.I_GetSL1C1_0.Progress::total         4263                      
system.ruby.Directory_Controller.M.deallocTBE |         347     24.89%     24.89% |         358     25.68%     50.57% |         341     24.46%     75.04% |         348     24.96%    100.00%
system.ruby.Directory_Controller.M.deallocTBE::total         1394                      
system.ruby.Directory_Controller.M_PutML1C1_0.Progress |         201     24.72%     24.72% |         215     26.45%     51.17% |         196     24.11%     75.28% |         201     24.72%    100.00%
system.ruby.Directory_Controller.M_PutML1C1_0.Progress::total          813                      
system.ruby.Directory_Controller.Progress |        1600     24.73%     24.73% |        1668     25.78%     50.51% |        1601     24.74%     75.26% |        1601     24.74%    100.00%
system.ruby.Directory_Controller.Progress::total         6470                      
system.ruby.Directory_Controller.S.deallocTBE |        1052     24.68%     24.68% |        1095     25.69%     50.36% |        1064     24.96%     75.32% |        1052     24.68%    100.00%
system.ruby.Directory_Controller.S.deallocTBE::total         4263                      
system.ruby.Directory_Controller.S_GetML1C1_1.Progress |          26     25.49%     25.49% |          26     25.49%     50.98% |          24     23.53%     74.51% |          26     25.49%    100.00%
system.ruby.Directory_Controller.S_GetML1C1_1.Progress::total          102                      
system.ruby.Directory_Controller.deallocTBE |        2516     24.70%     24.70% |        2624     25.76%     50.45% |        2530     24.83%     75.28% |        2518     24.72%    100.00%
system.ruby.Directory_Controller.deallocTBE::total        10188                      
system.ruby.IFETCH.hit_latency_hist_seqr::bucket_size            1                      
system.ruby.IFETCH.hit_latency_hist_seqr::max_bucket            9                      
system.ruby.IFETCH.hit_latency_hist_seqr::samples       706779                      
system.ruby.IFETCH.hit_latency_hist_seqr |      706779    100.00%    100.00% |           0      0.00%    100.00% |           0      0.00%    100.00% |           0      0.00%    100.00% |           0      0.00%    100.00% |           0      0.00%    100.00% |           0      0.00%    100.00% |           0      0.00%    100.00% |           0      0.00%    100.00% |           0      0.00%    100.00%
system.ruby.IFETCH.hit_latency_hist_seqr::total       706779                      
system.ruby.IFETCH.latency_hist_seqr::bucket_size           32                      
system.ruby.IFETCH.latency_hist_seqr::max_bucket          319                      
system.ruby.IFETCH.latency_hist_seqr::samples       708068                      
system.ruby.IFETCH.latency_hist_seqr::mean     0.000236                      
system.ruby.IFETCH.latency_hist_seqr::stdev     0.198463                      
system.ruby.IFETCH.latency_hist_seqr     |      708067    100.00%    100.00% |           0      0.00%    100.00% |           0      0.00%    100.00% |           0      0.00%    100.00% |           0      0.00%    100.00% |           1      0.00%    100.00% |           0      0.00%    100.00% |           0      0.00%    100.00% |           0      0.00%    100.00% |           0      0.00%    100.00%
system.ruby.IFETCH.latency_hist_seqr::total       708068                      
system.ruby.IFETCH.miss_latency_hist_seqr::bucket_size           32                      
system.ruby.IFETCH.miss_latency_hist_seqr::max_bucket          319                      
system.ruby.IFETCH.miss_latency_hist_seqr::samples         1289                      
system.ruby.IFETCH.miss_latency_hist_seqr::mean     0.129558                      
system.ruby.IFETCH.miss_latency_hist_seqr::stdev     4.651468                      
system.ruby.IFETCH.miss_latency_hist_seqr |        1288     99.92%     99.92% |           0      0.00%     99.92% |           0      0.00%     99.92% |           0      0.00%     99.92% |           0      0.00%     99.92% |           1      0.08%    100.00% |           0      0.00%    100.00% |           0      0.00%    100.00% |           0      0.00%    100.00% |           0      0.00%    100.00%
system.ruby.IFETCH.miss_latency_hist_seqr::total         1289                      
system.ruby.L1Cache_Controller.I.allocI_load |        4263    100.00%    100.00% |           0      0.00%    100.00% |           0      0.00%    100.00% |           0      0.00%    100.00%
system.ruby.L1Cache_Controller.I.allocI_load::total         4263                      
system.ruby.L1Cache_Controller.I.allocI_store |        1292    100.00%    100.00% |           0      0.00%    100.00% |           0      0.00%    100.00% |           0      0.00%    100.00%
system.ruby.L1Cache_Controller.I.allocI_store::total         1292                      
system.ruby.L1Cache_Controller.I.deallocfwdfrom_in |        4531    100.00%    100.00% |           0      0.00%    100.00% |           0      0.00%    100.00% |           0      0.00%    100.00%
system.ruby.L1Cache_Controller.I.deallocfwdfrom_in::total         4531                      
system.ruby.L1Cache_Controller.M.MloadMEvent |       96832    100.00%    100.00% |           0      0.00%    100.00% |           0      0.00%    100.00% |           0      0.00%    100.00%
system.ruby.L1Cache_Controller.M.MloadMEvent::total        96832                      
system.ruby.L1Cache_Controller.M.MstoreMEvent |       68238    100.00%    100.00% |           0      0.00%    100.00% |           0      0.00%    100.00% |           0      0.00%    100.00%
system.ruby.L1Cache_Controller.M.MstoreMEvent::total        68238                      
system.ruby.L1Cache_Controller.M.allocTBE |         813    100.00%    100.00% |           0      0.00%    100.00% |           0      0.00%    100.00% |           0      0.00%    100.00%
system.ruby.L1Cache_Controller.M.allocTBE::total          813                      
system.ruby.L1Cache_Controller.M.externalstoreMrespfrom_in |        1394    100.00%    100.00% |           0      0.00%    100.00% |           0      0.00%    100.00% |           0      0.00%    100.00%
system.ruby.L1Cache_Controller.M.externalstoreMrespfrom_in::total         1394                      
system.ruby.L1Cache_Controller.M_evict.Progress |         813    100.00%    100.00% |           0      0.00%    100.00% |           0      0.00%    100.00% |           0      0.00%    100.00%
system.ruby.L1Cache_Controller.M_evict.Progress::total          813                      
system.ruby.L1Cache_Controller.M_evict.Stallmandatory_in |        3864    100.00%    100.00% |           0      0.00%    100.00% |           0      0.00%    100.00% |           0      0.00%    100.00%
system.ruby.L1Cache_Controller.M_evict.Stallmandatory_in::total         3864                      
system.ruby.L1Cache_Controller.MloadMEvent |       96832    100.00%    100.00% |           0      0.00%    100.00% |           0      0.00%    100.00% |           0      0.00%    100.00%
system.ruby.L1Cache_Controller.MloadMEvent::total        96832                      
system.ruby.L1Cache_Controller.MstoreMEvent |       68238    100.00%    100.00% |           0      0.00%    100.00% |           0      0.00%    100.00% |           0      0.00%    100.00%
system.ruby.L1Cache_Controller.MstoreMEvent::total        68238                      
system.ruby.L1Cache_Controller.Progress  |        4633    100.00%    100.00% |           0      0.00%    100.00% |           0      0.00%    100.00% |           0      0.00%    100.00%
system.ruby.L1Cache_Controller.Progress::total         4633                      
system.ruby.L1Cache_Controller.S.SloadSEvent |      758212    100.00%    100.00% |           0      0.00%    100.00% |           0      0.00%    100.00% |           0      0.00%    100.00%
system.ruby.L1Cache_Controller.S.SloadSEvent::total       758212                      
system.ruby.L1Cache_Controller.S.allocTBE |        3820    100.00%    100.00% |           0      0.00%    100.00% |           0      0.00%    100.00% |           0      0.00%    100.00%
system.ruby.L1Cache_Controller.S.allocTBE::total         3820                      
system.ruby.L1Cache_Controller.S.externalloadSrespfrom_in |        4263    100.00%    100.00% |           0      0.00%    100.00% |           0      0.00%    100.00% |           0      0.00%    100.00%
system.ruby.L1Cache_Controller.S.externalloadSrespfrom_in::total         4263                      
system.ruby.L1Cache_Controller.S_evict.Progress |        3718    100.00%    100.00% |           0      0.00%    100.00% |           0      0.00%    100.00% |           0      0.00%    100.00%
system.ruby.L1Cache_Controller.S_evict.Progress::total         3718                      
system.ruby.L1Cache_Controller.S_evict.Stallmandatory_in |       10238    100.00%    100.00% |           0      0.00%    100.00% |           0      0.00%    100.00% |           0      0.00%    100.00%
system.ruby.L1Cache_Controller.S_evict.Stallmandatory_in::total        10238                      
system.ruby.L1Cache_Controller.S_store.Progress |         102    100.00%    100.00% |           0      0.00%    100.00% |           0      0.00%    100.00% |           0      0.00%    100.00%
system.ruby.L1Cache_Controller.S_store.Progress::total          102                      
system.ruby.L1Cache_Controller.SloadSEvent |      758212    100.00%    100.00% |           0      0.00%    100.00% |           0      0.00%    100.00% |           0      0.00%    100.00%
system.ruby.L1Cache_Controller.SloadSEvent::total       758212                      
system.ruby.L1Cache_Controller.Stallmandatory_in |       14102    100.00%    100.00% |           0      0.00%    100.00% |           0      0.00%    100.00% |           0      0.00%    100.00%
system.ruby.L1Cache_Controller.Stallmandatory_in::total        14102                      
system.ruby.L1Cache_Controller.allocI_load |        4263    100.00%    100.00% |           0      0.00%    100.00% |           0      0.00%    100.00% |           0      0.00%    100.00%
system.ruby.L1Cache_Controller.allocI_load::total         4263                      
system.ruby.L1Cache_Controller.allocI_store |        1292    100.00%    100.00% |           0      0.00%    100.00% |           0      0.00%    100.00% |           0      0.00%    100.00%
system.ruby.L1Cache_Controller.allocI_store::total         1292                      
system.ruby.L1Cache_Controller.allocTBE  |        4633    100.00%    100.00% |           0      0.00%    100.00% |           0      0.00%    100.00% |           0      0.00%    100.00%
system.ruby.L1Cache_Controller.allocTBE::total         4633                      
system.ruby.L1Cache_Controller.deallocfwdfrom_in |        4531    100.00%    100.00% |           0      0.00%    100.00% |           0      0.00%    100.00% |           0      0.00%    100.00%
system.ruby.L1Cache_Controller.deallocfwdfrom_in::total         4531                      
system.ruby.L1Cache_Controller.externalloadSrespfrom_in |        4263    100.00%    100.00% |           0      0.00%    100.00% |           0      0.00%    100.00% |           0      0.00%    100.00%
system.ruby.L1Cache_Controller.externalloadSrespfrom_in::total         4263                      
system.ruby.L1Cache_Controller.externalstoreMrespfrom_in |        1394    100.00%    100.00% |           0      0.00%    100.00% |           0      0.00%    100.00% |           0      0.00%    100.00%
system.ruby.L1Cache_Controller.externalstoreMrespfrom_in::total         1394                      
system.ruby.LD.hit_latency_hist_seqr::bucket_size            1                      
system.ruby.LD.hit_latency_hist_seqr::max_bucket            9                      
system.ruby.LD.hit_latency_hist_seqr::samples       148265                      
system.ruby.LD.hit_latency_hist_seqr     |      148265    100.00%    100.00% |           0      0.00%    100.00% |           0      0.00%    100.00% |           0      0.00%    100.00% |           0      0.00%    100.00% |           0      0.00%    100.00% |           0      0.00%    100.00% |           0      0.00%    100.00% |           0      0.00%    100.00% |           0      0.00%    100.00%
system.ruby.LD.hit_latency_hist_seqr::total       148265                      
system.ruby.LD.latency_hist_seqr::bucket_size            1                      
system.ruby.LD.latency_hist_seqr::max_bucket            9                      
system.ruby.LD.latency_hist_seqr::samples       151239                      
system.ruby.LD.latency_hist_seqr         |      151239    100.00%    100.00% |           0      0.00%    100.00% |           0      0.00%    100.00% |           0      0.00%    100.00% |           0      0.00%    100.00% |           0      0.00%    100.00% |           0      0.00%    100.00% |           0      0.00%    100.00% |           0      0.00%    100.00% |           0      0.00%    100.00%
system.ruby.LD.latency_hist_seqr::total        151239                      
system.ruby.LD.miss_latency_hist_seqr::bucket_size            1                      
system.ruby.LD.miss_latency_hist_seqr::max_bucket            9                      
system.ruby.LD.miss_latency_hist_seqr::samples         2974                      
system.ruby.LD.miss_latency_hist_seqr    |        2974    100.00%    100.00% |           0      0.00%    100.00% |           0      0.00%    100.00% |           0      0.00%    100.00% |           0      0.00%    100.00% |           0      0.00%    100.00% |           0      0.00%    100.00% |           0      0.00%    100.00% |           0      0.00%    100.00% |           0      0.00%    100.00%
system.ruby.LD.miss_latency_hist_seqr::total         2974                      
system.ruby.Locked_RMW_Read.hit_latency_hist_seqr::bucket_size            1                      
system.ruby.Locked_RMW_Read.hit_latency_hist_seqr::max_bucket            9                      
system.ruby.Locked_RMW_Read.hit_latency_hist_seqr::samples           14                      
system.ruby.Locked_RMW_Read.hit_latency_hist_seqr |          14    100.00%    100.00% |           0      0.00%    100.00% |           0      0.00%    100.00% |           0      0.00%    100.00% |           0      0.00%    100.00% |           0      0.00%    100.00% |           0      0.00%    100.00% |           0      0.00%    100.00% |           0      0.00%    100.00% |           0      0.00%    100.00%
system.ruby.Locked_RMW_Read.hit_latency_hist_seqr::total           14                      
system.ruby.Locked_RMW_Read.latency_hist_seqr::bucket_size            1                      
system.ruby.Locked_RMW_Read.latency_hist_seqr::max_bucket            9                      
system.ruby.Locked_RMW_Read.latency_hist_seqr::samples           16                      
system.ruby.Locked_RMW_Read.latency_hist_seqr |          16    100.00%    100.00% |           0      0.00%    100.00% |           0      0.00%    100.00% |           0      0.00%    100.00% |           0      0.00%    100.00% |           0      0.00%    100.00% |           0      0.00%    100.00% |           0      0.00%    100.00% |           0      0.00%    100.00% |           0      0.00%    100.00%
system.ruby.Locked_RMW_Read.latency_hist_seqr::total           16                      
system.ruby.Locked_RMW_Read.miss_latency_hist_seqr::bucket_size            1                      
system.ruby.Locked_RMW_Read.miss_latency_hist_seqr::max_bucket            9                      
system.ruby.Locked_RMW_Read.miss_latency_hist_seqr::samples            2                      
system.ruby.Locked_RMW_Read.miss_latency_hist_seqr |           2    100.00%    100.00% |           0      0.00%    100.00% |           0      0.00%    100.00% |           0      0.00%    100.00% |           0      0.00%    100.00% |           0      0.00%    100.00% |           0      0.00%    100.00% |           0      0.00%    100.00% |           0      0.00%    100.00% |           0      0.00%    100.00%
system.ruby.Locked_RMW_Read.miss_latency_hist_seqr::total            2                      
system.ruby.Locked_RMW_Write.hit_latency_hist_seqr::bucket_size            1                      
system.ruby.Locked_RMW_Write.hit_latency_hist_seqr::max_bucket            9                      
system.ruby.Locked_RMW_Write.hit_latency_hist_seqr::samples           16                      
system.ruby.Locked_RMW_Write.hit_latency_hist_seqr |          16    100.00%    100.00% |           0      0.00%    100.00% |           0      0.00%    100.00% |           0      0.00%    100.00% |           0      0.00%    100.00% |           0      0.00%    100.00% |           0      0.00%    100.00% |           0      0.00%    100.00% |           0      0.00%    100.00% |           0      0.00%    100.00%
system.ruby.Locked_RMW_Write.hit_latency_hist_seqr::total           16                      
system.ruby.Locked_RMW_Write.latency_hist_seqr::bucket_size            1                      
system.ruby.Locked_RMW_Write.latency_hist_seqr::max_bucket            9                      
system.ruby.Locked_RMW_Write.latency_hist_seqr::samples           16                      
system.ruby.Locked_RMW_Write.latency_hist_seqr |          16    100.00%    100.00% |           0      0.00%    100.00% |           0      0.00%    100.00% |           0      0.00%    100.00% |           0      0.00%    100.00% |           0      0.00%    100.00% |           0      0.00%    100.00% |           0      0.00%    100.00% |           0      0.00%    100.00% |           0      0.00%    100.00%
system.ruby.Locked_RMW_Write.latency_hist_seqr::total           16                      
system.ruby.RMW_Read.hit_latency_hist_seqr::bucket_size            1                      
system.ruby.RMW_Read.hit_latency_hist_seqr::max_bucket            9                      
system.ruby.RMW_Read.hit_latency_hist_seqr::samples          364                      
system.ruby.RMW_Read.hit_latency_hist_seqr |         364    100.00%    100.00% |           0      0.00%    100.00% |           0      0.00%    100.00% |           0      0.00%    100.00% |           0      0.00%    100.00% |           0      0.00%    100.00% |           0      0.00%    100.00% |           0      0.00%    100.00% |           0      0.00%    100.00% |           0      0.00%    100.00%
system.ruby.RMW_Read.hit_latency_hist_seqr::total          364                      
system.ruby.RMW_Read.latency_hist_seqr::bucket_size            1                      
system.ruby.RMW_Read.latency_hist_seqr::max_bucket            9                      
system.ruby.RMW_Read.latency_hist_seqr::samples          417                      
system.ruby.RMW_Read.latency_hist_seqr   |         417    100.00%    100.00% |           0      0.00%    100.00% |           0      0.00%    100.00% |           0      0.00%    100.00% |           0      0.00%    100.00% |           0      0.00%    100.00% |           0      0.00%    100.00% |           0      0.00%    100.00% |           0      0.00%    100.00% |           0      0.00%    100.00%
system.ruby.RMW_Read.latency_hist_seqr::total          417                      
system.ruby.RMW_Read.miss_latency_hist_seqr::bucket_size            1                      
system.ruby.RMW_Read.miss_latency_hist_seqr::max_bucket            9                      
system.ruby.RMW_Read.miss_latency_hist_seqr::samples           53                      
system.ruby.RMW_Read.miss_latency_hist_seqr |          53    100.00%    100.00% |           0      0.00%    100.00% |           0      0.00%    100.00% |           0      0.00%    100.00% |           0      0.00%    100.00% |           0      0.00%    100.00% |           0      0.00%    100.00% |           0      0.00%    100.00% |           0      0.00%    100.00% |           0      0.00%    100.00%
system.ruby.RMW_Read.miss_latency_hist_seqr::total           53                      
system.ruby.ST.hit_latency_hist_seqr::bucket_size            1                      
system.ruby.ST.hit_latency_hist_seqr::max_bucket            9                      
system.ruby.ST.hit_latency_hist_seqr::samples        67844                      
system.ruby.ST.hit_latency_hist_seqr     |       67844    100.00%    100.00% |           0      0.00%    100.00% |           0      0.00%    100.00% |           0      0.00%    100.00% |           0      0.00%    100.00% |           0      0.00%    100.00% |           0      0.00%    100.00% |           0      0.00%    100.00% |           0      0.00%    100.00% |           0      0.00%    100.00%
system.ruby.ST.hit_latency_hist_seqr::total        67844                      
system.ruby.ST.latency_hist_seqr::bucket_size            1                      
system.ruby.ST.latency_hist_seqr::max_bucket            9                      
system.ruby.ST.latency_hist_seqr::samples        69183                      
system.ruby.ST.latency_hist_seqr         |       69183    100.00%    100.00% |           0      0.00%    100.00% |           0      0.00%    100.00% |           0      0.00%    100.00% |           0      0.00%    100.00% |           0      0.00%    100.00% |           0      0.00%    100.00% |           0      0.00%    100.00% |           0      0.00%    100.00% |           0      0.00%    100.00%
system.ruby.ST.latency_hist_seqr::total         69183                      
system.ruby.ST.miss_latency_hist_seqr::bucket_size            1                      
system.ruby.ST.miss_latency_hist_seqr::max_bucket            9                      
system.ruby.ST.miss_latency_hist_seqr::samples         1339                      
system.ruby.ST.miss_latency_hist_seqr    |        1339    100.00%    100.00% |           0      0.00%    100.00% |           0      0.00%    100.00% |           0      0.00%    100.00% |           0      0.00%    100.00% |           0      0.00%    100.00% |           0      0.00%    100.00% |           0      0.00%    100.00% |           0      0.00%    100.00% |           0      0.00%    100.00%
system.ruby.ST.miss_latency_hist_seqr::total         1339                      
system.ruby.dir_cntrl0.fwdFrom.avg_buf_msgs     0.002414                       # Average number of messages in buffer
system.ruby.dir_cntrl0.fwdFrom.avg_stall_time  2941.251608                       # Average number of cycles messages are stalled in this MB
system.ruby.dir_cntrl0.reqTo.avg_buf_msgs     0.000906                       # Average number of messages in buffer
system.ruby.dir_cntrl0.reqTo.avg_stall_time  3013.611339                       # Average number of cycles messages are stalled in this MB
system.ruby.dir_cntrl0.requestToMemory.avg_buf_msgs     0.000576                       # Average number of messages in buffer
system.ruby.dir_cntrl0.requestToMemory.avg_stall_time   499.855593                       # Average number of cycles messages are stalled in this MB
system.ruby.dir_cntrl0.respFrom.avg_buf_msgs     0.003023                       # Average number of messages in buffer
system.ruby.dir_cntrl0.respFrom.avg_stall_time  2999.011479                       # Average number of cycles messages are stalled in this MB
system.ruby.dir_cntrl0.responseFromMemory.avg_buf_msgs     0.000987                       # Average number of messages in buffer
system.ruby.dir_cntrl0.responseFromMemory.avg_stall_time   499.836327                       # Average number of cycles messages are stalled in this MB
system.ruby.dir_cntrl1.fwdFrom.avg_buf_msgs     0.002530                       # Average number of messages in buffer
system.ruby.dir_cntrl1.fwdFrom.avg_stall_time  2940.819468                       # Average number of cycles messages are stalled in this MB
system.ruby.dir_cntrl1.reqTo.avg_buf_msgs     0.000945                       # Average number of messages in buffer
system.ruby.dir_cntrl1.reqTo.avg_stall_time  4022.294118                       # Average number of cycles messages are stalled in this MB
system.ruby.dir_cntrl1.requestToMemory.avg_buf_msgs     0.000601                       # Average number of messages in buffer
system.ruby.dir_cntrl1.requestToMemory.avg_stall_time   499.883142                       # Average number of cycles messages are stalled in this MB
system.ruby.dir_cntrl1.respFrom.avg_buf_msgs     0.003139                       # Average number of messages in buffer
system.ruby.dir_cntrl1.respFrom.avg_stall_time  2999.176773                       # Average number of cycles messages are stalled in this MB
system.ruby.dir_cntrl1.responseFromMemory.avg_buf_msgs     0.001030                       # Average number of messages in buffer
system.ruby.dir_cntrl1.responseFromMemory.avg_stall_time   499.863876                       # Average number of cycles messages are stalled in this MB
system.ruby.dir_cntrl2.fwdFrom.avg_buf_msgs     0.002431                       # Average number of messages in buffer
system.ruby.dir_cntrl2.fwdFrom.avg_stall_time  2976.418104                       # Average number of cycles messages are stalled in this MB
system.ruby.dir_cntrl2.reqTo.avg_buf_msgs     0.000911                       # Average number of messages in buffer
system.ruby.dir_cntrl2.reqTo.avg_stall_time  4021.161910                       # Average number of cycles messages are stalled in this MB
system.ruby.dir_cntrl2.requestToMemory.avg_buf_msgs     0.000577                       # Average number of messages in buffer
system.ruby.dir_cntrl2.requestToMemory.avg_stall_time   499.998199                       # Average number of cycles messages are stalled in this MB
system.ruby.dir_cntrl2.respFrom.avg_buf_msgs     0.003036                       # Average number of messages in buffer
system.ruby.dir_cntrl2.respFrom.avg_stall_time  2999.848751                       # Average number of cycles messages are stalled in this MB
system.ruby.dir_cntrl2.responseFromMemory.avg_buf_msgs     0.000987                       # Average number of messages in buffer
system.ruby.dir_cntrl2.responseFromMemory.avg_stall_time   499.975872                       # Average number of cycles messages are stalled in this MB
system.ruby.dir_cntrl3.fwdFrom.avg_buf_msgs     0.002416                       # Average number of messages in buffer
system.ruby.dir_cntrl3.fwdFrom.avg_stall_time  2976.076714                       # Average number of cycles messages are stalled in this MB
system.ruby.dir_cntrl3.reqTo.avg_buf_msgs     0.000907                       # Average number of messages in buffer
system.ruby.dir_cntrl3.reqTo.avg_stall_time  5020.823760                       # Average number of cycles messages are stalled in this MB
system.ruby.dir_cntrl3.requestToMemory.avg_buf_msgs     0.000577                       # Average number of messages in buffer
system.ruby.dir_cntrl3.requestToMemory.avg_stall_time   499.910691                       # Average number of cycles messages are stalled in this MB
system.ruby.dir_cntrl3.respFrom.avg_buf_msgs     0.003025                       # Average number of messages in buffer
system.ruby.dir_cntrl3.respFrom.avg_stall_time  2999.342066                       # Average number of cycles messages are stalled in this MB
system.ruby.dir_cntrl3.responseFromMemory.avg_buf_msgs     0.000992                       # Average number of messages in buffer
system.ruby.dir_cntrl3.responseFromMemory.avg_stall_time   499.891425                       # Average number of cycles messages are stalled in this MB
system.ruby.hit_latency_hist_seqr::bucket_size            1                      
system.ruby.hit_latency_hist_seqr::max_bucket            9                      
system.ruby.hit_latency_hist_seqr::samples       923282                      
system.ruby.hit_latency_hist_seqr        |      923282    100.00%    100.00% |           0      0.00%    100.00% |           0      0.00%    100.00% |           0      0.00%    100.00% |           0      0.00%    100.00% |           0      0.00%    100.00% |           0      0.00%    100.00% |           0      0.00%    100.00% |           0      0.00%    100.00% |           0      0.00%    100.00%
system.ruby.hit_latency_hist_seqr::total       923282                      
system.ruby.l1_cntrl0.cache.demand_accesses            0                       # Number of cache demand accesses
system.ruby.l1_cntrl0.cache.demand_hits             0                       # Number of cache demand hits
system.ruby.l1_cntrl0.cache.demand_misses            0                       # Number of cache demand misses
system.ruby.l1_cntrl0.fully_busy_cycles             7                       # cycles for which number of transistions == max transitions
system.ruby.l1_cntrl0.fwdFrom.avg_buf_msgs     0.001632                       # Average number of messages in buffer
system.ruby.l1_cntrl0.fwdFrom.avg_stall_time  6461.454707                       # Average number of cycles messages are stalled in this MB
system.ruby.l1_cntrl0.mandatoryQueue.avg_buf_msgs     0.385311                       # Average number of messages in buffer
system.ruby.l1_cntrl0.mandatoryQueue.avg_stall_time  4109.936847                       # Average number of cycles messages are stalled in this MB
system.ruby.l1_cntrl0.reqTo.avg_buf_msgs     0.003669                       # Average number of messages in buffer
system.ruby.l1_cntrl0.reqTo.avg_stall_time   499.999640                       # Average number of cycles messages are stalled in this MB
system.ruby.l1_cntrl0.respFrom.avg_buf_msgs     0.002037                       # Average number of messages in buffer
system.ruby.l1_cntrl0.respFrom.avg_stall_time 16492.124783                       # Average number of cycles messages are stalled in this MB
system.ruby.l1_cntrl1.cache.demand_accesses            0                       # Number of cache demand accesses
system.ruby.l1_cntrl1.cache.demand_hits             0                       # Number of cache demand hits
system.ruby.l1_cntrl1.cache.demand_misses            0                       # Number of cache demand misses
system.ruby.l1_cntrl2.cache.demand_accesses            0                       # Number of cache demand accesses
system.ruby.l1_cntrl2.cache.demand_hits             0                       # Number of cache demand hits
system.ruby.l1_cntrl2.cache.demand_misses            0                       # Number of cache demand misses
system.ruby.l1_cntrl3.cache.demand_accesses            0                       # Number of cache demand accesses
system.ruby.l1_cntrl3.cache.demand_hits             0                       # Number of cache demand hits
system.ruby.l1_cntrl3.cache.demand_misses            0                       # Number of cache demand misses
system.ruby.latency_hist_seqr::bucket_size           32                      
system.ruby.latency_hist_seqr::max_bucket          319                      
system.ruby.latency_hist_seqr::samples         928939                      
system.ruby.latency_hist_seqr::mean          0.000180                      
system.ruby.latency_hist_seqr::stdev         0.173270                      
system.ruby.latency_hist_seqr            |      928938    100.00%    100.00% |           0      0.00%    100.00% |           0      0.00%    100.00% |           0      0.00%    100.00% |           0      0.00%    100.00% |           1      0.00%    100.00% |           0      0.00%    100.00% |           0      0.00%    100.00% |           0      0.00%    100.00% |           0      0.00%    100.00%
system.ruby.latency_hist_seqr::total           928939                      
system.ruby.miss_latency_hist_seqr::bucket_size           32                      
system.ruby.miss_latency_hist_seqr::max_bucket          319                      
system.ruby.miss_latency_hist_seqr::samples         5657                      
system.ruby.miss_latency_hist_seqr::mean     0.029521                      
system.ruby.miss_latency_hist_seqr::stdev     2.220360                      
system.ruby.miss_latency_hist_seqr       |        5656     99.98%     99.98% |           0      0.00%     99.98% |           0      0.00%     99.98% |           0      0.00%     99.98% |           0      0.00%     99.98% |           1      0.02%    100.00% |           0      0.00%    100.00% |           0      0.00%    100.00% |           0      0.00%    100.00% |           0      0.00%    100.00%
system.ruby.miss_latency_hist_seqr::total         5657                      
system.ruby.network.average_flit_latency    16.541335                      
system.ruby.network.average_flit_network_latency    11.994120                      
system.ruby.network.average_flit_queueing_latency     4.547215                      
system.ruby.network.average_flit_vnet_latency |   15.000495                       |    5.000441                       |    8.024851                       |         nan                       |         nan                       |         nan                       |         nan                       |         nan                      
system.ruby.network.average_flit_vqueue_latency |           6                       |           6                       |           1                       |         nan                       |         nan                       |         nan                       |         nan                       |         nan                      
system.ruby.network.average_hops             1.000173                      
system.ruby.network.average_packet_latency    14.851050                      
system.ruby.network.average_packet_network_latency    11.351050                      
system.ruby.network.average_packet_queueing_latency     3.500000                      
system.ruby.network.average_packet_vnet_latency |   25.000530                       |    5.000441                       |    6.596388                       |         nan                       |         nan                       |         nan                       |         nan                       |         nan                      
system.ruby.network.average_packet_vqueue_latency |           6                       |           6                       |           1                       |         nan                       |         nan                       |         nan                       |         nan                       |         nan                      
system.ruby.network.avg_link_utilization     0.049976                      
system.ruby.network.avg_vc_load          |    0.022920     45.86%     45.86% |    0.002550      5.10%     50.96% |    0.002546      5.09%     56.06% |    0.002544      5.09%     61.15% |    0.003672      7.35%     68.50% |    0.000408      0.82%     69.31% |    0.000408      0.82%     70.13% |    0.000407      0.81%     70.94% |    0.010959     21.93%     92.87% |    0.001159      2.32%     95.19% |    0.001253      2.51%     97.70% |    0.001149      2.30%    100.00% |           0      0.00%    100.00% |           0      0.00%    100.00% |           0      0.00%    100.00% |           0      0.00%    100.00% |           0      0.00%    100.00% |           0      0.00%    100.00% |           0      0.00%    100.00% |           0      0.00%    100.00% |           0      0.00%    100.00% |           0      0.00%    100.00% |           0      0.00%    100.00% |           0      0.00%    100.00% |           0      0.00%    100.00% |           0      0.00%    100.00% |           0      0.00%    100.00% |           0      0.00%    100.00% |           0      0.00%    100.00% |           0      0.00%    100.00% |           0      0.00%    100.00% |           0      0.00%    100.00%
system.ruby.network.avg_vc_load::total       0.049976                      
system.ruby.network.ext_in_link_utilization        46256                      
system.ruby.network.ext_out_link_utilization        46256                      
system.ruby.network.flit_network_latency |      424289                       |       22657                       |      107854                       |           0                       |           0                       |           0                       |           0                       |           0                      
system.ruby.network.flit_queueing_latency |      169710                       |       27186                       |       13440                       |           0                       |           0                       |           0                       |           0                       |           0                      
system.ruby.network.flits_injected       |       28285     61.15%     61.15% |        4531      9.80%     70.94% |       13440     29.06%    100.00% |           0      0.00%    100.00% |           0      0.00%    100.00% |           0      0.00%    100.00% |           0      0.00%    100.00% |           0      0.00%    100.00%
system.ruby.network.flits_injected::total        46256                      
system.ruby.network.flits_received       |       28285     61.15%     61.15% |        4531      9.80%     70.94% |       13440     29.06%    100.00% |           0      0.00%    100.00% |           0      0.00%    100.00% |           0      0.00%    100.00% |           0      0.00%    100.00% |           0      0.00%    100.00%
system.ruby.network.flits_received::total        46256                      
system.ruby.network.int_link_utilization        46264                      
system.ruby.network.packet_network_latency |      141428                       |       22657                       |       67204                       |           0                       |           0                       |           0                       |           0                       |           0                      
system.ruby.network.packet_queueing_latency |       33942                       |       27186                       |       10188                       |           0                       |           0                       |           0                       |           0                       |           0                      
system.ruby.network.packets_injected     |        5657     27.76%     27.76% |        4531     22.24%     50.00% |       10188     50.00%    100.00% |           0      0.00%    100.00% |           0      0.00%    100.00% |           0      0.00%    100.00% |           0      0.00%    100.00% |           0      0.00%    100.00%
system.ruby.network.packets_injected::total        20376                      
[...]
system.mem_ctrls1.rdQLenPdf::31                     0                       # What read queue length does an incoming req see
system.mem_ctrls1.wrQLenPdf::0                      1                       # What write queue length does an incoming req see
system.mem_ctrls1.wrQLenPdf::1                      1                       # What write queue length does an incoming req see
system.mem_ctrls1.wrQLenPdf::2                      1                       # What write queue length does an incoming req see
system.mem_ctrls1.wrQLenPdf::3                      1                       # What write queue length does an incoming req see
system.mem_ctrls1.wrQLenPdf::4                      1                       # What write queue length does an incoming req see
system.mem_ctrls1.wrQLenPdf::5                      1                       # What write queue length does an incoming req see
system.mem_ctrls1.wrQLenPdf::6                      1                       # What write queue length does an incoming req see
system.mem_ctrls1.wrQLenPdf::7                      1                       # What write queue length does an incoming req see
system.mem_ctrls1.wrQLenPdf::8                      1                       # What write queue length does an incoming req see
system.mem_ctrls1.wrQLenPdf::9                      1                       # What write queue length does an incoming req see
system.mem_ctrls1.wrQLenPdf::10                     1                       # What write queue length does an incoming req see
system.mem_ctrls1.wrQLenPdf::11                     1                       # What write queue length does an incoming req see
system.mem_ctrls1.wrQLenPdf::12                     1                       # What write queue length does an incoming req see
system.mem_ctrls1.wrQLenPdf::13                     1                       # What write queue length does an incoming req see
system.mem_ctrls1.wrQLenPdf::14                     1                       # What write queue length does an incoming req see
system.mem_ctrls1.wrQLenPdf::15                     1                       # What write queue length does an incoming req see
system.mem_ctrls1.wrQLenPdf::16                     1                       # What write queue length does an incoming req see
system.mem_ctrls1.wrQLenPdf::17                    12                       # What write queue length does an incoming req see
system.mem_ctrls1.wrQLenPdf::18                    12                       # What write queue length does an incoming req see
system.mem_ctrls1.wrQLenPdf::19                    12                       # What write queue length does an incoming req see
system.mem_ctrls1.wrQLenPdf::20                    12                       # What write queue length does an incoming req see
system.mem_ctrls1.wrQLenPdf::21                    12                       # What write queue length does an incoming req see
system.mem_ctrls1.wrQLenPdf::22                    12                       # What write queue length does an incoming req see
system.mem_ctrls1.wrQLenPdf::23                    12                       # What write queue length does an incoming req see
system.mem_ctrls1.wrQLenPdf::24                    12                       # What write queue length does an incoming req see
system.mem_ctrls1.wrQLenPdf::25                    12                       # What write queue length does an incoming req see
system.mem_ctrls1.wrQLenPdf::26                    12                       # What write queue length does an incoming req see
system.mem_ctrls1.wrQLenPdf::27                    12                       # What write queue length does an incoming req see
system.mem_ctrls1.wrQLenPdf::28                    12                       # What write queue length does an incoming req see
system.mem_ctrls1.wrQLenPdf::29                    12                       # What write queue length does an incoming req see
system.mem_ctrls1.wrQLenPdf::30                    12                       # What write queue length does an incoming req see
system.mem_ctrls1.wrQLenPdf::31                    12                       # What write queue length does an incoming req see
system.mem_ctrls1.wrQLenPdf::32                    12                       # What write queue length does an incoming req see
system.mem_ctrls1.wrQLenPdf::33                     0                       # What write queue length does an incoming req see
system.mem_ctrls1.wrQLenPdf::34                     0                       # What write queue length does an incoming req see
system.mem_ctrls1.wrQLenPdf::35                     0                       # What write queue length does an incoming req see
system.mem_ctrls1.wrQLenPdf::36                     0                       # What write queue length does an incoming req see
system.mem_ctrls1.wrQLenPdf::37                     0                       # What write queue length does an incoming req see
system.mem_ctrls1.wrQLenPdf::38                     0                       # What write queue length does an incoming req see
system.mem_ctrls1.wrQLenPdf::39                     0                       # What write queue length does an incoming req see
system.mem_ctrls1.wrQLenPdf::40                     0                       # What write queue length does an incoming req see
system.mem_ctrls1.wrQLenPdf::41                     0                       # What write queue length does an incoming req see
system.mem_ctrls1.wrQLenPdf::42                     0                       # What write queue length does an incoming req see
system.mem_ctrls1.wrQLenPdf::43                     0                       # What write queue length does an incoming req see
system.mem_ctrls1.wrQLenPdf::44                     0                       # What write queue length does an incoming req see
system.mem_ctrls1.wrQLenPdf::45                     0                       # What write queue length does an incoming req see
system.mem_ctrls1.wrQLenPdf::46                     0                       # What write queue length does an incoming req see
system.mem_ctrls1.wrQLenPdf::47                     0                       # What write queue length does an incoming req see
system.mem_ctrls1.wrQLenPdf::48                     0                       # What write queue length does an incoming req see
system.mem_ctrls1.wrQLenPdf::49                     0                       # What write queue length does an incoming req see
system.mem_ctrls1.wrQLenPdf::50                     0                       # What write queue length does an incoming req see
system.mem_ctrls1.wrQLenPdf::51                     0                       # What write queue length does an incoming req see
system.mem_ctrls1.wrQLenPdf::52                     0                       # What write queue length does an incoming req see
system.mem_ctrls1.wrQLenPdf::53                     0                       # What write queue length does an incoming req see
system.mem_ctrls1.wrQLenPdf::54                     0                       # What write queue length does an incoming req see
system.mem_ctrls1.wrQLenPdf::55                     0                       # What write queue length does an incoming req see
system.mem_ctrls1.wrQLenPdf::56                     0                       # What write queue length does an incoming req see
system.mem_ctrls1.wrQLenPdf::57                     0                       # What write queue length does an incoming req see
system.mem_ctrls1.wrQLenPdf::58                     0                       # What write queue length does an incoming req see
system.mem_ctrls1.wrQLenPdf::59                     0                       # What write queue length does an incoming req see
system.mem_ctrls1.wrQLenPdf::60                     0                       # What write queue length does an incoming req see
system.mem_ctrls1.wrQLenPdf::61                     0                       # What write queue length does an incoming req see
system.mem_ctrls1.wrQLenPdf::62                     0                       # What write queue length does an incoming req see
system.mem_ctrls1.wrQLenPdf::63                     0                       # What write queue length does an incoming req see
system.mem_ctrls1.bytesPerActivate::samples          539                       # Bytes accessed per row activation
system.mem_ctrls1.bytesPerActivate::mean   190.100186                       # Bytes accessed per row activation
system.mem_ctrls1.bytesPerActivate::gmean   133.256927                       # Bytes accessed per row activation
system.mem_ctrls1.bytesPerActivate::stdev   197.464253                       # Bytes accessed per row activation
system.mem_ctrls1.bytesPerActivate::0-127          218     40.45%     40.45% # Bytes accessed per row activation
system.mem_ctrls1.bytesPerActivate::128-255          198     36.73%     77.18% # Bytes accessed per row activation
system.mem_ctrls1.bytesPerActivate::256-383           47      8.72%     85.90% # Bytes accessed per row activation
system.mem_ctrls1.bytesPerActivate::384-511           22      4.08%     89.98% # Bytes accessed per row activation
system.mem_ctrls1.bytesPerActivate::512-639           17      3.15%     93.14% # Bytes accessed per row activation
system.mem_ctrls1.bytesPerActivate::640-767           22      4.08%     97.22% # Bytes accessed per row activation
system.mem_ctrls1.bytesPerActivate::768-895            5      0.93%     98.14% # Bytes accessed per row activation
system.mem_ctrls1.bytesPerActivate::896-1023            2      0.37%     98.52% # Bytes accessed per row activation
system.mem_ctrls1.bytesPerActivate::1024-1151            8      1.48%    100.00% # Bytes accessed per row activation
system.mem_ctrls1.bytesPerActivate::total          539                       # Bytes accessed per row activation
system.mem_ctrls1.rdPerTurnAround::samples           12                       # Reads before turning the bus around for writes
system.mem_ctrls1.rdPerTurnAround::mean    115.583333                       # Reads before turning the bus around for writes
system.mem_ctrls1.rdPerTurnAround::gmean    93.251683                       # Reads before turning the bus around for writes
system.mem_ctrls1.rdPerTurnAround::stdev    94.846726                       # Reads before turning the bus around for writes
system.mem_ctrls1.rdPerTurnAround::32-47            1      8.33%      8.33% # Reads before turning the bus around for writes
system.mem_ctrls1.rdPerTurnAround::48-63            4     33.33%     41.67% # Reads before turning the bus around for writes
system.mem_ctrls1.rdPerTurnAround::64-79            2     16.67%     58.33% # Reads before turning the bus around for writes
system.mem_ctrls1.rdPerTurnAround::96-111            1      8.33%     66.67% # Reads before turning the bus around for writes
system.mem_ctrls1.rdPerTurnAround::128-143            2     16.67%     83.33% # Reads before turning the bus around for writes
system.mem_ctrls1.rdPerTurnAround::192-207            1      8.33%     91.67% # Reads before turning the bus around for writes
system.mem_ctrls1.rdPerTurnAround::368-383            1      8.33%    100.00% # Reads before turning the bus around for writes
system.mem_ctrls1.rdPerTurnAround::total           12                       # Reads before turning the bus around for writes
system.mem_ctrls1.wrPerTurnAround::samples           12                       # Writes before turning the bus around for reads
system.mem_ctrls1.wrPerTurnAround::mean            16                       # Writes before turning the bus around for reads
system.mem_ctrls1.wrPerTurnAround::gmean    16.000000                       # Writes before turning the bus around for reads
system.mem_ctrls1.wrPerTurnAround::16              12    100.00%    100.00% # Writes before turning the bus around for reads
system.mem_ctrls1.wrPerTurnAround::total           12                       # Writes before turning the bus around for reads
system.mem_ctrls1.bytesReadDRAM                 90240                       # Total number of bytes read from DRAM
system.mem_ctrls1.bytesReadWrQ                   2752                       # Total number of bytes read from write queue
system.mem_ctrls1.bytesWritten                  12288                       # Total number of bytes written to DRAM
system.mem_ctrls1.bytesReadSys                  92992                       # Total read bytes from the system interface side
system.mem_ctrls1.bytesWrittenSys               13760                       # Total written bytes from the system interface side
system.mem_ctrls1.avgRdBW                       64.99                       # Average DRAM read bandwidth in MiByte/s
system.mem_ctrls1.avgWrBW                        8.85                       # Average achieved write bandwidth in MiByte/s
system.mem_ctrls1.avgRdBWSys                    66.98                       # Average system read bandwidth in MiByte/s
system.mem_ctrls1.avgWrBWSys                     9.91                       # Average system write bandwidth in MiByte/s
system.mem_ctrls1.peakBW                     12800.00                       # Theoretical peak bandwidth in MiByte/s
system.mem_ctrls1.busUtil                        0.58                       # Data bus utilization in percentage
system.mem_ctrls1.busUtilRead                    0.51                       # Data bus utilization in percentage for reads
system.mem_ctrls1.busUtilWrite                   0.07                       # Data bus utilization in percentage for writes
system.mem_ctrls1.totGap                   1387047500                       # Total gap between requests
system.mem_ctrls1.avgGap                    831563.25                       # Average gap between requests
system.mem_ctrls1.masterReadBytes::.ruby.dir_cntrl1        90240                       # Per-master bytes read from memory
system.mem_ctrls1.masterWriteBytes::.ruby.dir_cntrl1        12288                       # Per-master bytes write to memory
system.mem_ctrls1.masterReadRate::.ruby.dir_cntrl1 64993899.619572490454                       # Per-master bytes read from memory rate (Bytes/sec)
system.mem_ctrls1.masterWriteRate::.ruby.dir_cntrl1 8850233.139686467126                       # Per-master bytes write to memory rate (Bytes/sec)
system.mem_ctrls1.masterReadAccesses::.ruby.dir_cntrl1         1453                       # Per-master read serviced memory accesses
system.mem_ctrls1.masterWriteAccesses::.ruby.dir_cntrl1          215                       # Per-master write serviced memory accesses
system.mem_ctrls1.masterReadTotalLat::.ruby.dir_cntrl1     38748978                       # Per-master read total memory access latency
system.mem_ctrls1.masterWriteTotalLat::.ruby.dir_cntrl1  23685599000                       # Per-master write total memory access latency
system.mem_ctrls1.masterReadAvgLat::.ruby.dir_cntrl1     26668.26                       # Per-master read average memory access latency
system.mem_ctrls1.masterWriteAvgLat::.ruby.dir_cntrl1 110165576.74                       # Per-master write average memory access latency
system.mem_ctrls1.pageHitRate                   65.60                       # Row buffer hit rate, read and write combined
system.mem_ctrls1.rank1.actEnergy             2363340                       # Energy for activate commands per rank (pJ)
system.mem_ctrls1.rank1.preEnergy             1252350                       # Energy for precharge commands per rank (pJ)
system.mem_ctrls1.rank1.readEnergy            6654480                       # Energy for read commands per rank (pJ)
system.mem_ctrls1.rank1.writeEnergy            683820                       # Energy for write commands per rank (pJ)
system.mem_ctrls1.rank1.refreshEnergy    109405920.000000                       # Energy for refresh commands per rank (pJ)
system.mem_ctrls1.rank1.actBackEnergy       498252960                       # Energy for active background per rank (pJ)
system.mem_ctrls1.rank1.preBackEnergy       113579040                       # Energy for precharge background per rank (pJ)
system.mem_ctrls1.rank1.actPowerDownEnergy            0                       # Energy for active power-down per rank (pJ)
system.mem_ctrls1.rank1.prePowerDownEnergy            0                       # Energy for precharge power-down per rank (pJ)
system.mem_ctrls1.rank1.selfRefreshEnergy            0                       # Energy for self refresh per rank (pJ)
system.mem_ctrls1.rank1.totalEnergy         732191910                       # Total energy per rank (pJ)
system.mem_ctrls1.rank1.averagePower       527.349374                       # Core power per rank (mW)
system.mem_ctrls1.rank1.totalIdleTime               0                       # Total Idle time Per DRAM Rank
system.mem_ctrls1.rank1.memoryStateTime::IDLE    290767158                       # Time in different power states
system.mem_ctrls1.rank1.memoryStateTime::REF     46280000                       # Time in different power states
system.mem_ctrls1.rank1.memoryStateTime::SREF            0                       # Time in different power states
system.mem_ctrls1.rank1.memoryStateTime::PRE_PDN            0                       # Time in different power states
system.mem_ctrls1.rank1.memoryStateTime::ACT   1051390842                       # Time in different power states
system.mem_ctrls1.rank1.memoryStateTime::ACT_PDN            0                       # Time in different power states
system.mem_ctrls1.rank0.actEnergy             1492260                       # Energy for activate commands per rank (pJ)
system.mem_ctrls1.rank0.preEnergy              793155                       # Energy for precharge commands per rank (pJ)
system.mem_ctrls1.rank0.readEnergy            3412920                       # Energy for read commands per rank (pJ)
system.mem_ctrls1.rank0.writeEnergy            318420                       # Energy for write commands per rank (pJ)
system.mem_ctrls1.rank0.refreshEnergy    109405920.000000                       # Energy for refresh commands per rank (pJ)
system.mem_ctrls1.rank0.actBackEnergy       200227890                       # Energy for active background per rank (pJ)
system.mem_ctrls1.rank0.preBackEnergy       364547520                       # Energy for precharge background per rank (pJ)
system.mem_ctrls1.rank0.actPowerDownEnergy            0                       # Energy for active power-down per rank (pJ)
system.mem_ctrls1.rank0.prePowerDownEnergy            0                       # Energy for precharge power-down per rank (pJ)
system.mem_ctrls1.rank0.selfRefreshEnergy            0                       # Energy for self refresh per rank (pJ)
system.mem_ctrls1.rank0.totalEnergy         680198085                       # Total energy per rank (pJ)
system.mem_ctrls1.rank0.averagePower       489.901663                       # Core power per rank (mW)
system.mem_ctrls1.rank0.totalIdleTime               0                       # Total Idle time Per DRAM Rank
system.mem_ctrls1.rank0.memoryStateTime::IDLE    945898058                       # Time in different power states
system.mem_ctrls1.rank0.memoryStateTime::REF     46280000                       # Time in different power states
system.mem_ctrls1.rank0.memoryStateTime::SREF            0                       # Time in different power states
system.mem_ctrls1.rank0.memoryStateTime::PRE_PDN            0                       # Time in different power states
system.mem_ctrls1.rank0.memoryStateTime::ACT    396259942                       # Time in different power states
system.mem_ctrls1.rank0.memoryStateTime::ACT_PDN            0                       # Time in different power states
system.mem_ctrls1.power_state.pwrStateResidencyTicks::UNDEFINED   1388438000                       # Cumulative time (in ticks) in various power states
system.cpu_voltage_domain.voltage                   1                       # Voltage in Volts

---------- End Simulation Statistics   ----------
