
---------- Begin Simulation Statistics ----------
final_tick                               55497232019168000                       # Number of ticks from beginning of simulation (restored from checkpoints and never reset)
host_inst_rate                               15275591                       # Simulator instruction rate (inst/s)
host_mem_usage                                6176500                       # Number of bytes of host memory used
host_op_rate                                 15275591                       # Simulator op (including micro ops) rate (op/s)
host_seconds                                 12718.38                       # Real time elapsed on the host
host_tick_rate                           4363544559861                       # Simulator tick rate (ticks/s)
sim_freq                                 1000000000000                       # Frequency of simulated ticks
sim_insts                                194280817327                       # Number of instructions simulated
sim_ops                                  194280817327                       # Number of ops (including micro ops) simulated
sim_seconds                              55497.232019                       # Number of seconds simulated
sim_ticks                                55497232019168000                       # Number of ticks simulated
system.cpu0.committedInsts                 9870287988                       # Number of instructions committed
system.cpu0.dtb.rdAccesses                          0                       # TLB accesses on read requests
system.cpu0.dtb.rdMisses                            0                       # TLB misses on read requests
system.cpu0.dtb.wrAccesses                          0                       # TLB accesses on write requests
system.cpu0.dtb.wrMisses                            0                       # TLB misses on write requests
system.cpu0.itb.rdAccesses                          0                       # TLB accesses on read requests
system.cpu0.itb.rdMisses                            0                       # TLB misses on read requests
system.cpu0.itb.wrAccesses                          0                       # TLB accesses on write requests
system.cpu0.itb.wrMisses                            0                       # TLB misses on write requests
system.cpu0.kern.inst.arm                           0                       # number of arm instructions executed
system.cpu0.kern.inst.quiesce                       0                       # number of quiesce instructions executed
system.cpu0.numCoalescedMMIO                        0                       # number of coalesced memory mapped IO requests
system.cpu0.numCycles                    110994463721943                       # number of cpu cycles simulated
system.cpu0.numExitSignal                    55620713                       # exits due to signal delivery
system.cpu0.numHalt                          55471264                       # number of VM exits due to wait for interrupt instructions
system.cpu0.numHypercalls                           0                       # number of hypercalls
system.cpu0.numIO                               21380                       # number of VM exits due to legacy IO
system.cpu0.numInterrupts                         703                       # number of interrupts delivered
system.cpu0.numMMIO                              2398                       # number of VM exits due to memory mapped IO
system.cpu0.numVMExits                      111115939                       # total number of KVM exits
system.cpu0.numVMHalfEntries                        0                       # number of KVM entries to finalize pending operations
system.cpu0.numWorkItemsCompleted                   0                       # number of work items this cpu completed
system.cpu0.numWorkItemsStarted                     0                       # number of work items this cpu started
system.cpu1.committedInsts                61472492658                       # Number of instructions committed
system.cpu1.dtb.rdAccesses                          0                       # TLB accesses on read requests
system.cpu1.dtb.rdMisses                            0                       # TLB misses on read requests
system.cpu1.dtb.wrAccesses                          0                       # TLB accesses on write requests
system.cpu1.dtb.wrMisses                            0                       # TLB misses on write requests
system.cpu1.itb.rdAccesses                          0                       # TLB accesses on read requests
system.cpu1.itb.rdMisses                            0                       # TLB misses on read requests
system.cpu1.itb.wrAccesses                          0                       # TLB accesses on write requests
system.cpu1.itb.wrMisses                            0                       # TLB misses on write requests
system.cpu1.kern.inst.arm                           0                       # number of arm instructions executed
system.cpu1.kern.inst.quiesce                       0                       # number of quiesce instructions executed
system.cpu1.numCoalescedMMIO                        0                       # number of coalesced memory mapped IO requests
system.cpu1.numCycles                    110994407649442                       # number of cpu cycles simulated
system.cpu1.numExitSignal                    55693956                       # exits due to signal delivery
system.cpu1.numHalt                          55471697                       # number of VM exits due to wait for interrupt instructions
system.cpu1.numHypercalls                           0                       # number of hypercalls
system.cpu1.numIO                                 360                       # number of VM exits due to legacy IO
system.cpu1.numInterrupts                    55472132                       # number of interrupts delivered
system.cpu1.numMMIO                          55473260                       # number of VM exits due to memory mapped IO
system.cpu1.numVMExits                      166639547                       # total number of KVM exits
system.cpu1.numVMHalfEntries                        0                       # number of KVM entries to finalize pending operations
system.cpu1.numWorkItemsCompleted                   0                       # number of work items this cpu completed
system.cpu1.numWorkItemsStarted                     0                       # number of work items this cpu started
system.cpu2.committedInsts                61470705333                       # Number of instructions committed
system.cpu2.dtb.rdAccesses                          0                       # TLB accesses on read requests
system.cpu2.dtb.rdMisses                            0                       # TLB misses on read requests
system.cpu2.dtb.wrAccesses                          0                       # TLB accesses on write requests
system.cpu2.dtb.wrMisses                            0                       # TLB misses on write requests
system.cpu2.itb.rdAccesses                          0                       # TLB accesses on read requests
system.cpu2.itb.rdMisses                            0                       # TLB misses on read requests
system.cpu2.itb.wrAccesses                          0                       # TLB accesses on write requests
system.cpu2.itb.wrMisses                            0                       # TLB misses on write requests
system.cpu2.kern.inst.arm                           0                       # number of arm instructions executed
system.cpu2.kern.inst.quiesce                       0                       # number of quiesce instructions executed
system.cpu2.numCoalescedMMIO                        0                       # number of coalesced memory mapped IO requests
system.cpu2.numCycles                    110994407403793                       # number of cpu cycles simulated
system.cpu2.numExitSignal                    55694257                       # exits due to signal delivery
system.cpu2.numHalt                          55471683                       # number of VM exits due to wait for interrupt instructions
system.cpu2.numHypercalls                           0                       # number of hypercalls
system.cpu2.numIO                                 140                       # number of VM exits due to legacy IO
system.cpu2.numInterrupts                    55471987                       # number of interrupts delivered
system.cpu2.numMMIO                          55472095                       # number of VM exits due to memory mapped IO
system.cpu2.numVMExits                      166638332                       # total number of KVM exits
system.cpu2.numVMHalfEntries                        3                       # number of KVM entries to finalize pending operations
system.cpu2.numWorkItemsCompleted                   0                       # number of work items this cpu completed
system.cpu2.numWorkItemsStarted                     0                       # number of work items this cpu started
system.cpu3.committedInsts                61467331348                       # Number of instructions committed
system.cpu3.dtb.rdAccesses                          0                       # TLB accesses on read requests
system.cpu3.dtb.rdMisses                            0                       # TLB misses on read requests
system.cpu3.dtb.wrAccesses                          0                       # TLB accesses on write requests
system.cpu3.dtb.wrMisses                            0                       # TLB misses on write requests
system.cpu3.itb.rdAccesses                          0                       # TLB accesses on read requests
system.cpu3.itb.rdMisses                            0                       # TLB misses on read requests
system.cpu3.itb.wrAccesses                          0                       # TLB accesses on write requests
system.cpu3.itb.wrMisses                            0                       # TLB misses on write requests
system.cpu3.kern.inst.arm                           0                       # number of arm instructions executed
system.cpu3.kern.inst.quiesce                       0                       # number of quiesce instructions executed
system.cpu3.numCoalescedMMIO                        0                       # number of coalesced memory mapped IO requests
system.cpu3.numCycles                    110994408616323                       # number of cpu cycles simulated
system.cpu3.numExitSignal                    55692897                       # exits due to signal delivery
system.cpu3.numHalt                          55471596                       # number of VM exits due to wait for interrupt instructions
system.cpu3.numHypercalls                           0                       # number of hypercalls
system.cpu3.numIO                                 140                       # number of VM exits due to legacy IO
system.cpu3.numInterrupts                    55471778                       # number of interrupts delivered
system.cpu3.numMMIO                          55471924                       # number of VM exits due to memory mapped IO
system.cpu3.numVMExits                      166636628                       # total number of KVM exits
system.cpu3.numVMHalfEntries                        4                       # number of KVM entries to finalize pending operations
system.cpu3.numWorkItemsCompleted                   0                       # number of work items this cpu completed
system.cpu3.numWorkItemsStarted                     0                       # number of work items this cpu started
system.pc.south_bridge.ide.disks.dma_read_bytes            0                       # Number of bytes transfered via DMA reads (not PRD).
system.pc.south_bridge.ide.disks.dma_read_full_pages            0                       # Number of full page size DMA reads (not PRD).
system.pc.south_bridge.ide.disks.dma_read_txs            0                       # Number of DMA read transactions (not PRD).
system.pc.south_bridge.ide.disks.dma_write_bytes            0                       # Number of bytes transfered via DMA writes.
system.pc.south_bridge.ide.disks.dma_write_full_pages            0                       # Number of full page size DMA writes.
system.pc.south_bridge.ide.disks.dma_write_txs            0                       # Number of DMA write transactions.
system.ruby.dma_cntrl0.cache.demand_accesses            0                       # Number of cache demand accesses
system.ruby.dma_cntrl0.cache.demand_hits            0                       # Number of cache demand hits
system.ruby.dma_cntrl0.cache.demand_misses            0                       # Number of cache demand misses
system.ruby.io_controller.cache.demand_accesses            0                       # Number of cache demand accesses
system.ruby.io_controller.cache.demand_hits            0                       # Number of cache demand hits
system.ruby.io_controller.cache.demand_misses            0                       # Number of cache demand misses
system.ruby.l1_cntrl0.cache.demand_accesses            0                       # Number of cache demand accesses
system.ruby.l1_cntrl0.cache.demand_hits             0                       # Number of cache demand hits
system.ruby.l1_cntrl0.cache.demand_misses            0                       # Number of cache demand misses
system.ruby.l1_cntrl1.cache.demand_accesses            0                       # Number of cache demand accesses
system.ruby.l1_cntrl1.cache.demand_hits             0                       # Number of cache demand hits
system.ruby.l1_cntrl1.cache.demand_misses            0                       # Number of cache demand misses
system.ruby.l1_cntrl2.cache.demand_accesses            0                       # Number of cache demand accesses
system.ruby.l1_cntrl2.cache.demand_hits             0                       # Number of cache demand hits
system.ruby.l1_cntrl2.cache.demand_misses            0                       # Number of cache demand misses
system.ruby.l1_cntrl3.cache.demand_accesses            0                       # Number of cache demand accesses
system.ruby.l1_cntrl3.cache.demand_hits             0                       # Number of cache demand hits
system.ruby.l1_cntrl3.cache.demand_misses            0                       # Number of cache demand misses
system.ruby.network.average_flit_latency          nan                      
system.ruby.network.average_flit_network_latency          nan                      
system.ruby.network.average_flit_queueing_latency          nan                      
system.ruby.network.average_flit_vnet_latency |         nan                       |         nan                       |         nan                       |         nan                       |         nan                       |         nan                       |         nan                       |         nan                      
system.ruby.network.average_flit_vqueue_latency |         nan                       |         nan                       |         nan                       |         nan                       |         nan                       |         nan                       |         nan                       |         nan                      
system.ruby.network.average_hops                  nan                      
system.ruby.network.average_packet_latency          nan                      
system.ruby.network.average_packet_network_latency          nan                      
system.ruby.network.average_packet_queueing_latency          nan                      
system.ruby.network.average_packet_vnet_latency |         nan                       |         nan                       |         nan                       |         nan                       |         nan                       |         nan                       |         nan                       |         nan                      
system.ruby.network.average_packet_vqueue_latency |         nan                       |         nan                       |         nan                       |         nan                       |         nan                       |         nan                       |         nan                       |         nan                      
system.ruby.network.avg_link_utilization            0                      
system.ruby.network.ext_in_link_utilization            0                      
system.ruby.network.ext_out_link_utilization            0                      
system.ruby.network.flit_network_latency |           0                       |           0                       |           0                       |           0                       |           0                       |           0                       |           0                       |           0                      
system.ruby.network.flit_queueing_latency |           0                       |           0                       |           0                       |           0                       |           0                       |           0                       |           0                       |           0                      
system.ruby.network.int_link_utilization            0                      
system.ruby.network.packet_network_latency |           0                       |           0                       |           0                       |           0                       |           0                       |           0                       |           0                       |           0                      
system.ruby.network.packet_queueing_latency |           0                       |           0                       |           0                       |           0                       |           0                       |           0                       |           0                       |           0                      
system.switch_cpus0.committedInsts                  0                       # Number of instructions committed
system.switch_cpus0.committedOps                    0                       # Number of ops (including micro ops) committed
system.switch_cpus0.dtb.rdAccesses                  0                       # TLB accesses on read requests
system.switch_cpus0.dtb.rdMisses                    0                       # TLB misses on read requests
system.switch_cpus0.dtb.wrAccesses                  0                       # TLB accesses on write requests
system.switch_cpus0.dtb.wrMisses                    0                       # TLB misses on write requests
system.switch_cpus0.idle_fraction                   1                       # Percentage of idle cycles
system.switch_cpus0.itb.rdAccesses                  0                       # TLB accesses on read requests
system.switch_cpus0.itb.rdMisses                    0                       # TLB misses on read requests
system.switch_cpus0.itb.wrAccesses                  0                       # TLB accesses on write requests
system.switch_cpus0.itb.wrMisses                    0                       # TLB misses on write requests
system.switch_cpus0.kern.inst.arm                   0                       # number of arm instructions executed
system.switch_cpus0.kern.inst.quiesce               0                       # number of quiesce instructions executed
system.switch_cpus0.not_idle_fraction               0                       # Percentage of non-idle cycles
system.switch_cpus0.numCycles                       0                       # number of cpu cycles simulated
system.switch_cpus0.numWorkItemsCompleted            0                       # number of work items this cpu completed
system.switch_cpus0.numWorkItemsStarted             0                       # number of work items this cpu started
system.switch_cpus0.num_busy_cycles                 0                       # Number of busy cycles
system.switch_cpus0.num_conditional_control_insts            0                       # number of instructions that are conditional controls
system.switch_cpus0.num_fp_alu_accesses             0                       # Number of float alu accesses
system.switch_cpus0.num_fp_insts                    0                       # number of float instructions
system.switch_cpus0.num_fp_register_reads            0                       # number of times the floating registers were read
system.switch_cpus0.num_fp_register_writes            0                       # number of times the floating registers were written
system.switch_cpus0.num_func_calls                  0                       # number of times a function call or return occured
system.switch_cpus0.num_idle_cycles                 0                       # Number of idle cycles
system.switch_cpus0.num_int_alu_accesses            0                       # Number of integer alu accesses
system.switch_cpus0.num_int_insts                   0                       # number of integer instructions
system.switch_cpus0.num_int_register_reads            0                       # number of times the integer registers were read
system.switch_cpus0.num_int_register_writes            0                       # number of times the integer registers were written
system.switch_cpus0.num_load_insts                  0                       # Number of load instructions
system.switch_cpus0.num_mem_refs                    0                       # number of memory refs
system.switch_cpus0.num_store_insts                 0                       # Number of store instructions
system.switch_cpus0.num_vec_alu_accesses            0                       # Number of vector alu accesses
system.switch_cpus0.num_vec_insts                   0                       # number of vector instructions
system.switch_cpus0.num_vec_register_reads            0                       # number of times the vector registers were read
system.switch_cpus0.num_vec_register_writes            0                       # number of times the vector registers were written
system.switch_cpus0.op_class::No_OpClass            0                       # Class of executed instruction
system.switch_cpus0.op_class::IntAlu                0                       # Class of executed instruction
system.switch_cpus0.op_class::IntMult               0                       # Class of executed instruction
system.switch_cpus0.op_class::IntDiv                0                       # Class of executed instruction
system.switch_cpus0.op_class::FloatAdd              0                       # Class of executed instruction
system.switch_cpus0.op_class::FloatCmp              0                       # Class of executed instruction
system.switch_cpus0.op_class::FloatCvt              0                       # Class of executed instruction
system.switch_cpus0.op_class::FloatMult             0                       # Class of executed instruction
system.switch_cpus0.op_class::FloatMultAcc            0                       # Class of executed instruction
system.switch_cpus0.op_class::FloatDiv              0                       # Class of executed instruction
system.switch_cpus0.op_class::FloatMisc             0                       # Class of executed instruction
system.switch_cpus0.op_class::FloatSqrt             0                       # Class of executed instruction
system.switch_cpus0.op_class::SimdAdd               0                       # Class of executed instruction
system.switch_cpus0.op_class::SimdAddAcc            0                       # Class of executed instruction
system.switch_cpus0.op_class::SimdAlu               0                       # Class of executed instruction
system.switch_cpus0.op_class::SimdCmp               0                       # Class of executed instruction
system.switch_cpus0.op_class::SimdCvt               0                       # Class of executed instruction
system.switch_cpus0.op_class::SimdMisc              0                       # Class of executed instruction
system.switch_cpus0.op_class::SimdMult              0                       # Class of executed instruction
system.switch_cpus0.op_class::SimdMultAcc            0                       # Class of executed instruction
system.switch_cpus0.op_class::SimdShift             0                       # Class of executed instruction
system.switch_cpus0.op_class::SimdShiftAcc            0                       # Class of executed instruction
system.switch_cpus0.op_class::SimdDiv               0                       # Class of executed instruction
system.switch_cpus0.op_class::SimdSqrt              0                       # Class of executed instruction
system.switch_cpus0.op_class::SimdFloatAdd            0                       # Class of executed instruction
system.switch_cpus0.op_class::SimdFloatAlu            0                       # Class of executed instruction
system.switch_cpus0.op_class::SimdFloatCmp            0                       # Class of executed instruction
system.switch_cpus0.op_class::SimdFloatCvt            0                       # Class of executed instruction
system.switch_cpus0.op_class::SimdFloatDiv            0                       # Class of executed instruction
system.switch_cpus0.op_class::SimdFloatMisc            0                       # Class of executed instruction
system.switch_cpus0.op_class::SimdFloatMult            0                       # Class of executed instruction
system.switch_cpus0.op_class::SimdFloatMultAcc            0                       # Class of executed instruction
system.switch_cpus0.op_class::SimdFloatSqrt            0                       # Class of executed instruction
system.switch_cpus0.op_class::SimdReduceAdd            0                       # Class of executed instruction
system.switch_cpus0.op_class::SimdReduceAlu            0                       # Class of executed instruction
system.switch_cpus0.op_class::SimdReduceCmp            0                       # Class of executed instruction
system.switch_cpus0.op_class::SimdFloatReduceAdd            0                       # Class of executed instruction
system.switch_cpus0.op_class::SimdFloatReduceCmp            0                       # Class of executed instruction
system.switch_cpus0.op_class::SimdAes               0                       # Class of executed instruction
system.switch_cpus0.op_class::SimdAesMix            0                       # Class of executed instruction
system.switch_cpus0.op_class::SimdSha1Hash            0                       # Class of executed instruction
system.switch_cpus0.op_class::SimdSha1Hash2            0                       # Class of executed instruction
system.switch_cpus0.op_class::SimdSha256Hash            0                       # Class of executed instruction
system.switch_cpus0.op_class::SimdSha256Hash2            0                       # Class of executed instruction
system.switch_cpus0.op_class::SimdShaSigma2            0                       # Class of executed instruction
system.switch_cpus0.op_class::SimdShaSigma3            0                       # Class of executed instruction
system.switch_cpus0.op_class::SimdPredAlu            0                       # Class of executed instruction
system.switch_cpus0.op_class::MemRead               0                       # Class of executed instruction
system.switch_cpus0.op_class::MemWrite              0                       # Class of executed instruction
system.switch_cpus0.op_class::FloatMemRead            0                       # Class of executed instruction
system.switch_cpus0.op_class::FloatMemWrite            0                       # Class of executed instruction
system.switch_cpus0.op_class::IprAccess             0                       # Class of executed instruction
system.switch_cpus0.op_class::InstPrefetch            0                       # Class of executed instruction
system.switch_cpus0.op_class::total                 0                       # Class of executed instruction
system.switch_cpus1.committedInsts                  0                       # Number of instructions committed
system.switch_cpus1.committedOps                    0                       # Number of ops (including micro ops) committed
system.switch_cpus1.dtb.rdAccesses                  0                       # TLB accesses on read requests
system.switch_cpus1.dtb.rdMisses                    0                       # TLB misses on read requests
system.switch_cpus1.dtb.wrAccesses                  0                       # TLB accesses on write requests
system.switch_cpus1.dtb.wrMisses                    0                       # TLB misses on write requests
system.switch_cpus1.idle_fraction                   1                       # Percentage of idle cycles
system.switch_cpus1.itb.rdAccesses                  0                       # TLB accesses on read requests
system.switch_cpus1.itb.rdMisses                    0                       # TLB misses on read requests
system.switch_cpus1.itb.wrAccesses                  0                       # TLB accesses on write requests
system.switch_cpus1.itb.wrMisses                    0                       # TLB misses on write requests
system.switch_cpus1.kern.inst.arm                   0                       # number of arm instructions executed
system.switch_cpus1.kern.inst.quiesce               0                       # number of quiesce instructions executed
system.switch_cpus1.not_idle_fraction               0                       # Percentage of non-idle cycles
system.switch_cpus1.numCycles                       0                       # number of cpu cycles simulated
system.switch_cpus1.numWorkItemsCompleted            0                       # number of work items this cpu completed
system.switch_cpus1.numWorkItemsStarted             0                       # number of work items this cpu started
system.switch_cpus1.num_busy_cycles                 0                       # Number of busy cycles
system.switch_cpus1.num_conditional_control_insts            0                       # number of instructions that are conditional controls
system.switch_cpus1.num_fp_alu_accesses             0                       # Number of float alu accesses
system.switch_cpus1.num_fp_insts                    0                       # number of float instructions
system.switch_cpus1.num_fp_register_reads            0                       # number of times the floating registers were read
system.switch_cpus1.num_fp_register_writes            0                       # number of times the floating registers were written
system.switch_cpus1.num_func_calls                  0                       # number of times a function call or return occured
system.switch_cpus1.num_idle_cycles                 0                       # Number of idle cycles
system.switch_cpus1.num_int_alu_accesses            0                       # Number of integer alu accesses
system.switch_cpus1.num_int_insts                   0                       # number of integer instructions
system.switch_cpus1.num_int_register_reads            0                       # number of times the integer registers were read
system.switch_cpus1.num_int_register_writes            0                       # number of times the integer registers were written
system.switch_cpus1.num_load_insts                  0                       # Number of load instructions
system.switch_cpus1.num_mem_refs                    0                       # number of memory refs
system.switch_cpus1.num_store_insts                 0                       # Number of store instructions
system.switch_cpus1.num_vec_alu_accesses            0                       # Number of vector alu accesses
system.switch_cpus1.num_vec_insts                   0                       # number of vector instructions
system.switch_cpus1.num_vec_register_reads            0                       # number of times the vector registers were read
system.switch_cpus1.num_vec_register_writes            0                       # number of times the vector registers were written
system.switch_cpus1.op_class::No_OpClass            0                       # Class of executed instruction
system.switch_cpus1.op_class::IntAlu                0                       # Class of executed instruction
system.switch_cpus1.op_class::IntMult               0                       # Class of executed instruction
system.switch_cpus1.op_class::IntDiv                0                       # Class of executed instruction
system.switch_cpus1.op_class::FloatAdd              0                       # Class of executed instruction
system.switch_cpus1.op_class::FloatCmp              0                       # Class of executed instruction
system.switch_cpus1.op_class::FloatCvt              0                       # Class of executed instruction
system.switch_cpus1.op_class::FloatMult             0                       # Class of executed instruction
system.switch_cpus1.op_class::FloatMultAcc            0                       # Class of executed instruction
system.switch_cpus1.op_class::FloatDiv              0                       # Class of executed instruction
system.switch_cpus1.op_class::FloatMisc             0                       # Class of executed instruction
system.switch_cpus1.op_class::FloatSqrt             0                       # Class of executed instruction
system.switch_cpus1.op_class::SimdAdd               0                       # Class of executed instruction
system.switch_cpus1.op_class::SimdAddAcc            0                       # Class of executed instruction
system.switch_cpus1.op_class::SimdAlu               0                       # Class of executed instruction
system.switch_cpus1.op_class::SimdCmp               0                       # Class of executed instruction
system.switch_cpus1.op_class::SimdCvt               0                       # Class of executed instruction
system.switch_cpus1.op_class::SimdMisc              0                       # Class of executed instruction
system.switch_cpus1.op_class::SimdMult              0                       # Class of executed instruction
system.switch_cpus1.op_class::SimdMultAcc            0                       # Class of executed instruction
system.switch_cpus1.op_class::SimdShift             0                       # Class of executed instruction
system.switch_cpus1.op_class::SimdShiftAcc            0                       # Class of executed instruction
system.switch_cpus1.op_class::SimdDiv               0                       # Class of executed instruction
system.switch_cpus1.op_class::SimdSqrt              0                       # Class of executed instruction
system.switch_cpus1.op_class::SimdFloatAdd            0                       # Class of executed instruction
system.switch_cpus1.op_class::SimdFloatAlu            0                       # Class of executed instruction
system.switch_cpus1.op_class::SimdFloatCmp            0                       # Class of executed instruction
system.switch_cpus1.op_class::SimdFloatCvt            0                       # Class of executed instruction
system.switch_cpus1.op_class::SimdFloatDiv            0                       # Class of executed instruction
system.switch_cpus1.op_class::SimdFloatMisc            0                       # Class of executed instruction
system.switch_cpus1.op_class::SimdFloatMult            0                       # Class of executed instruction
system.switch_cpus1.op_class::SimdFloatMultAcc            0                       # Class of executed instruction
system.switch_cpus1.op_class::SimdFloatSqrt            0                       # Class of executed instruction
system.switch_cpus1.op_class::SimdReduceAdd            0                       # Class of executed instruction
system.switch_cpus1.op_class::SimdReduceAlu            0                       # Class of executed instruction
system.switch_cpus1.op_class::SimdReduceCmp            0                       # Class of executed instruction
system.switch_cpus1.op_class::SimdFloatReduceAdd            0                       # Class of executed instruction
system.switch_cpus1.op_class::SimdFloatReduceCmp            0                       # Class of executed instruction
system.switch_cpus1.op_class::SimdAes               0                       # Class of executed instruction
system.switch_cpus1.op_class::SimdAesMix            0                       # Class of executed instruction
system.switch_cpus1.op_class::SimdSha1Hash            0                       # Class of executed instruction
system.switch_cpus1.op_class::SimdSha1Hash2            0                       # Class of executed instruction
system.switch_cpus1.op_class::SimdSha256Hash            0                       # Class of executed instruction
system.switch_cpus1.op_class::SimdSha256Hash2            0                       # Class of executed instruction
system.switch_cpus1.op_class::SimdShaSigma2            0                       # Class of executed instruction
system.switch_cpus1.op_class::SimdShaSigma3            0                       # Class of executed instruction
system.switch_cpus1.op_class::SimdPredAlu            0                       # Class of executed instruction
system.switch_cpus1.op_class::MemRead               0                       # Class of executed instruction
system.switch_cpus1.op_class::MemWrite              0                       # Class of executed instruction
system.switch_cpus1.op_class::FloatMemRead            0                       # Class of executed instruction
system.switch_cpus1.op_class::FloatMemWrite            0                       # Class of executed instruction
system.switch_cpus1.op_class::IprAccess             0                       # Class of executed instruction
system.switch_cpus1.op_class::InstPrefetch            0                       # Class of executed instruction
system.switch_cpus1.op_class::total                 0                       # Class of executed instruction
system.switch_cpus2.committedInsts                  0                       # Number of instructions committed
system.switch_cpus2.committedOps                    0                       # Number of ops (including micro ops) committed
system.switch_cpus2.dtb.rdAccesses                  0                       # TLB accesses on read requests
system.switch_cpus2.dtb.rdMisses                    0                       # TLB misses on read requests
system.switch_cpus2.dtb.wrAccesses                  0                       # TLB accesses on write requests
system.switch_cpus2.dtb.wrMisses                    0                       # TLB misses on write requests
system.switch_cpus2.idle_fraction                   1                       # Percentage of idle cycles
system.switch_cpus2.itb.rdAccesses                  0                       # TLB accesses on read requests
system.switch_cpus2.itb.rdMisses                    0                       # TLB misses on read requests
system.switch_cpus2.itb.wrAccesses                  0                       # TLB accesses on write requests
system.switch_cpus2.itb.wrMisses                    0                       # TLB misses on write requests
system.switch_cpus2.kern.inst.arm                   0                       # number of arm instructions executed
system.switch_cpus2.kern.inst.quiesce               0                       # number of quiesce instructions executed
system.switch_cpus2.not_idle_fraction               0                       # Percentage of non-idle cycles
system.switch_cpus2.numCycles                       0                       # number of cpu cycles simulated
system.switch_cpus2.numWorkItemsCompleted            0                       # number of work items this cpu completed
system.switch_cpus2.numWorkItemsStarted             0                       # number of work items this cpu started
system.switch_cpus2.num_busy_cycles                 0                       # Number of busy cycles
system.switch_cpus2.num_conditional_control_insts            0                       # number of instructions that are conditional controls
system.switch_cpus2.num_fp_alu_accesses             0                       # Number of float alu accesses
system.switch_cpus2.num_fp_insts                    0                       # number of float instructions
system.switch_cpus2.num_fp_register_reads            0                       # number of times the floating registers were read
system.switch_cpus2.num_fp_register_writes            0                       # number of times the floating registers were written
system.switch_cpus2.num_func_calls                  0                       # number of times a function call or return occured
system.switch_cpus2.num_idle_cycles                 0                       # Number of idle cycles
system.switch_cpus2.num_int_alu_accesses            0                       # Number of integer alu accesses
system.switch_cpus2.num_int_insts                   0                       # number of integer instructions
system.switch_cpus2.num_int_register_reads            0                       # number of times the integer registers were read
system.switch_cpus2.num_int_register_writes            0                       # number of times the integer registers were written
system.switch_cpus2.num_load_insts                  0                       # Number of load instructions
system.switch_cpus2.num_mem_refs                    0                       # number of memory refs
system.switch_cpus2.num_store_insts                 0                       # Number of store instructions
system.switch_cpus2.num_vec_alu_accesses            0                       # Number of vector alu accesses
system.switch_cpus2.num_vec_insts                   0                       # number of vector instructions
system.switch_cpus2.num_vec_register_reads            0                       # number of times the vector registers were read
system.switch_cpus2.num_vec_register_writes            0                       # number of times the vector registers were written
system.switch_cpus2.op_class::No_OpClass            0                       # Class of executed instruction
system.switch_cpus2.op_class::IntAlu                0                       # Class of executed instruction
system.switch_cpus2.op_class::IntMult               0                       # Class of executed instruction
system.switch_cpus2.op_class::IntDiv                0                       # Class of executed instruction
system.switch_cpus2.op_class::FloatAdd              0                       # Class of executed instruction
system.switch_cpus2.op_class::FloatCmp              0                       # Class of executed instruction
system.switch_cpus2.op_class::FloatCvt              0                       # Class of executed instruction
system.switch_cpus2.op_class::FloatMult             0                       # Class of executed instruction
system.switch_cpus2.op_class::FloatMultAcc            0                       # Class of executed instruction
system.switch_cpus2.op_class::FloatDiv              0                       # Class of executed instruction
system.switch_cpus2.op_class::FloatMisc             0                       # Class of executed instruction
system.switch_cpus2.op_class::FloatSqrt             0                       # Class of executed instruction
system.switch_cpus2.op_class::SimdAdd               0                       # Class of executed instruction
system.switch_cpus2.op_class::SimdAddAcc            0                       # Class of executed instruction
system.switch_cpus2.op_class::SimdAlu               0                       # Class of executed instruction
system.switch_cpus2.op_class::SimdCmp               0                       # Class of executed instruction
system.switch_cpus2.op_class::SimdCvt               0                       # Class of executed instruction
system.switch_cpus2.op_class::SimdMisc              0                       # Class of executed instruction
system.switch_cpus2.op_class::SimdMult              0                       # Class of executed instruction
system.switch_cpus2.op_class::SimdMultAcc            0                       # Class of executed instruction
system.switch_cpus2.op_class::SimdShift             0                       # Class of executed instruction
system.switch_cpus2.op_class::SimdShiftAcc            0                       # Class of executed instruction
system.switch_cpus2.op_class::SimdDiv               0                       # Class of executed instruction
system.switch_cpus2.op_class::SimdSqrt              0                       # Class of executed instruction
system.switch_cpus2.op_class::SimdFloatAdd            0                       # Class of executed instruction
system.switch_cpus2.op_class::SimdFloatAlu            0                       # Class of executed instruction
system.switch_cpus2.op_class::SimdFloatCmp            0                       # Class of executed instruction
system.switch_cpus2.op_class::SimdFloatCvt            0                       # Class of executed instruction
system.switch_cpus2.op_class::SimdFloatDiv            0                       # Class of executed instruction
system.switch_cpus2.op_class::SimdFloatMisc            0                       # Class of executed instruction
system.switch_cpus2.op_class::SimdFloatMult            0                       # Class of executed instruction
system.switch_cpus2.op_class::SimdFloatMultAcc            0                       # Class of executed instruction
system.switch_cpus2.op_class::SimdFloatSqrt            0                       # Class of executed instruction
system.switch_cpus2.op_class::SimdReduceAdd            0                       # Class of executed instruction
system.switch_cpus2.op_class::SimdReduceAlu            0                       # Class of executed instruction
system.switch_cpus2.op_class::SimdReduceCmp            0                       # Class of executed instruction
system.switch_cpus2.op_class::SimdFloatReduceAdd            0                       # Class of executed instruction
system.switch_cpus2.op_class::SimdFloatReduceCmp            0                       # Class of executed instruction
system.switch_cpus2.op_class::SimdAes               0                       # Class of executed instruction
system.switch_cpus2.op_class::SimdAesMix            0                       # Class of executed instruction
system.switch_cpus2.op_class::SimdSha1Hash            0                       # Class of executed instruction
system.switch_cpus2.op_class::SimdSha1Hash2            0                       # Class of executed instruction
system.switch_cpus2.op_class::SimdSha256Hash            0                       # Class of executed instruction
system.switch_cpus2.op_class::SimdSha256Hash2            0                       # Class of executed instruction
system.switch_cpus2.op_class::SimdShaSigma2            0                       # Class of executed instruction
system.switch_cpus2.op_class::SimdShaSigma3            0                       # Class of executed instruction
system.switch_cpus2.op_class::SimdPredAlu            0                       # Class of executed instruction
system.switch_cpus2.op_class::MemRead               0                       # Class of executed instruction
system.switch_cpus2.op_class::MemWrite              0                       # Class of executed instruction
system.switch_cpus2.op_class::FloatMemRead            0                       # Class of executed instruction
system.switch_cpus2.op_class::FloatMemWrite            0                       # Class of executed instruction
system.switch_cpus2.op_class::IprAccess             0                       # Class of executed instruction
system.switch_cpus2.op_class::InstPrefetch            0                       # Class of executed instruction
system.switch_cpus2.op_class::total                 0                       # Class of executed instruction
system.switch_cpus3.committedInsts                  0                       # Number of instructions committed
system.switch_cpus3.committedOps                    0                       # Number of ops (including micro ops) committed
system.switch_cpus3.dtb.rdAccesses                  0                       # TLB accesses on read requests
system.switch_cpus3.dtb.rdMisses                    0                       # TLB misses on read requests
system.switch_cpus3.dtb.wrAccesses                  0                       # TLB accesses on write requests
system.switch_cpus3.dtb.wrMisses                    0                       # TLB misses on write requests
system.switch_cpus3.idle_fraction                   1                       # Percentage of idle cycles
system.switch_cpus3.itb.rdAccesses                  0                       # TLB accesses on read requests
system.switch_cpus3.itb.rdMisses                    0                       # TLB misses on read requests
system.switch_cpus3.itb.wrAccesses                  0                       # TLB accesses on write requests
system.switch_cpus3.itb.wrMisses                    0                       # TLB misses on write requests
system.switch_cpus3.kern.inst.arm                   0                       # number of arm instructions executed
system.switch_cpus3.kern.inst.quiesce               0                       # number of quiesce instructions executed
system.switch_cpus3.not_idle_fraction               0                       # Percentage of non-idle cycles
system.switch_cpus3.numCycles                       0                       # number of cpu cycles simulated
system.switch_cpus3.numWorkItemsCompleted            0                       # number of work items this cpu completed
system.switch_cpus3.numWorkItemsStarted             0                       # number of work items this cpu started
system.switch_cpus3.num_busy_cycles                 0                       # Number of busy cycles
system.switch_cpus3.num_conditional_control_insts            0                       # number of instructions that are conditional controls
system.switch_cpus3.num_fp_alu_accesses             0                       # Number of float alu accesses
system.switch_cpus3.num_fp_insts                    0                       # number of float instructions
system.switch_cpus3.num_fp_register_reads            0                       # number of times the floating registers were read
system.switch_cpus3.num_fp_register_writes            0                       # number of times the floating registers were written
system.switch_cpus3.num_func_calls                  0                       # number of times a function call or return occured
system.switch_cpus3.num_idle_cycles                 0                       # Number of idle cycles
system.switch_cpus3.num_int_alu_accesses            0                       # Number of integer alu accesses
system.switch_cpus3.num_int_insts                   0                       # number of integer instructions
system.switch_cpus3.num_int_register_reads            0                       # number of times the integer registers were read
system.switch_cpus3.num_int_register_writes            0                       # number of times the integer registers were written
system.switch_cpus3.num_load_insts                  0                       # Number of load instructions
system.switch_cpus3.num_mem_refs                    0                       # number of memory refs
system.switch_cpus3.num_store_insts                 0                       # Number of store instructions
system.switch_cpus3.num_vec_alu_accesses            0                       # Number of vector alu accesses
system.switch_cpus3.num_vec_insts                   0                       # number of vector instructions
system.switch_cpus3.num_vec_register_reads            0                       # number of times the vector registers were read
system.switch_cpus3.num_vec_register_writes            0                       # number of times the vector registers were written
system.switch_cpus3.op_class::No_OpClass            0                       # Class of executed instruction
system.switch_cpus3.op_class::IntAlu                0                       # Class of executed instruction
system.switch_cpus3.op_class::IntMult               0                       # Class of executed instruction
system.switch_cpus3.op_class::IntDiv                0                       # Class of executed instruction
system.switch_cpus3.op_class::FloatAdd              0                       # Class of executed instruction
system.switch_cpus3.op_class::FloatCmp              0                       # Class of executed instruction
system.switch_cpus3.op_class::FloatCvt              0                       # Class of executed instruction
system.switch_cpus3.op_class::FloatMult             0                       # Class of executed instruction
system.switch_cpus3.op_class::FloatMultAcc            0                       # Class of executed instruction
system.switch_cpus3.op_class::FloatDiv              0                       # Class of executed instruction
system.switch_cpus3.op_class::FloatMisc             0                       # Class of executed instruction
system.switch_cpus3.op_class::FloatSqrt             0                       # Class of executed instruction
system.switch_cpus3.op_class::SimdAdd               0                       # Class of executed instruction
system.switch_cpus3.op_class::SimdAddAcc            0                       # Class of executed instruction
system.switch_cpus3.op_class::SimdAlu               0                       # Class of executed instruction
system.switch_cpus3.op_class::SimdCmp               0                       # Class of executed instruction
system.switch_cpus3.op_class::SimdCvt               0                       # Class of executed instruction
system.switch_cpus3.op_class::SimdMisc              0                       # Class of executed instruction
system.switch_cpus3.op_class::SimdMult              0                       # Class of executed instruction
system.switch_cpus3.op_class::SimdMultAcc            0                       # Class of executed instruction
system.switch_cpus3.op_class::SimdShift             0                       # Class of executed instruction
system.switch_cpus3.op_class::SimdShiftAcc            0                       # Class of executed instruction
system.switch_cpus3.op_class::SimdDiv               0                       # Class of executed instruction
system.switch_cpus3.op_class::SimdSqrt              0                       # Class of executed instruction
system.switch_cpus3.op_class::SimdFloatAdd            0                       # Class of executed instruction
system.switch_cpus3.op_class::SimdFloatAlu            0                       # Class of executed instruction
system.switch_cpus3.op_class::SimdFloatCmp            0                       # Class of executed instruction
system.switch_cpus3.op_class::SimdFloatCvt            0                       # Class of executed instruction
system.switch_cpus3.op_class::SimdFloatDiv            0                       # Class of executed instruction
system.switch_cpus3.op_class::SimdFloatMisc            0                       # Class of executed instruction
system.switch_cpus3.op_class::SimdFloatMult            0                       # Class of executed instruction
system.switch_cpus3.op_class::SimdFloatMultAcc            0                       # Class of executed instruction
system.switch_cpus3.op_class::SimdFloatSqrt            0                       # Class of executed instruction
system.switch_cpus3.op_class::SimdReduceAdd            0                       # Class of executed instruction
system.switch_cpus3.op_class::SimdReduceAlu            0                       # Class of executed instruction
system.switch_cpus3.op_class::SimdReduceCmp            0                       # Class of executed instruction
system.switch_cpus3.op_class::SimdFloatReduceAdd            0                       # Class of executed instruction
system.switch_cpus3.op_class::SimdFloatReduceCmp            0                       # Class of executed instruction
system.switch_cpus3.op_class::SimdAes               0                       # Class of executed instruction
system.switch_cpus3.op_class::SimdAesMix            0                       # Class of executed instruction
system.switch_cpus3.op_class::SimdSha1Hash            0                       # Class of executed instruction
system.switch_cpus3.op_class::SimdSha1Hash2            0                       # Class of executed instruction
system.switch_cpus3.op_class::SimdSha256Hash            0                       # Class of executed instruction
system.switch_cpus3.op_class::SimdSha256Hash2            0                       # Class of executed instruction
system.switch_cpus3.op_class::SimdShaSigma2            0                       # Class of executed instruction
system.switch_cpus3.op_class::SimdShaSigma3            0                       # Class of executed instruction
system.switch_cpus3.op_class::SimdPredAlu            0                       # Class of executed instruction
system.switch_cpus3.op_class::MemRead               0                       # Class of executed instruction
system.switch_cpus3.op_class::MemWrite              0                       # Class of executed instruction
system.switch_cpus3.op_class::FloatMemRead            0                       # Class of executed instruction
system.switch_cpus3.op_class::FloatMemWrite            0                       # Class of executed instruction
system.switch_cpus3.op_class::IprAccess             0                       # Class of executed instruction
system.switch_cpus3.op_class::InstPrefetch            0                       # Class of executed instruction
system.switch_cpus3.op_class::total                 0                       # Class of executed instruction
system.cpu_clk_domain.clock                       500                       # Clock period in ticks
system.voltage_domain.voltage                       1                       # Voltage in Volts
system.clk_domain.clock                          1000                       # Clock period in ticks
system.pc.fake_com_4.power_state.pwrStateResidencyTicks::UNDEFINED 55497232019168000                       # Cumulative time (in ticks) in various power states
system.pc.fake_com_2.power_state.pwrStateResidencyTicks::UNDEFINED 55497232019168000                       # Cumulative time (in ticks) in various power states
system.pc.fake_com_3.power_state.pwrStateResidencyTicks::UNDEFINED 55497232019168000                       # Cumulative time (in ticks) in various power states
system.pc.south_bridge.io_apic.power_state.pwrStateResidencyTicks::UNDEFINED 55497232019168000                       # Cumulative time (in ticks) in various power states
system.pc.south_bridge.pic1.power_state.pwrStateResidencyTicks::UNDEFINED 55497232019168000                       # Cumulative time (in ticks) in various power states
system.pc.south_bridge.pic2.power_state.pwrStateResidencyTicks::UNDEFINED 55497232019168000                       # Cumulative time (in ticks) in various power states
system.pc.south_bridge.dma1.power_state.pwrStateResidencyTicks::UNDEFINED 55497232019168000                       # Cumulative time (in ticks) in various power states
system.pc.south_bridge.speaker.power_state.pwrStateResidencyTicks::UNDEFINED 55497232019168000                       # Cumulative time (in ticks) in various power states
system.pc.south_bridge.keyboard.power_state.pwrStateResidencyTicks::UNDEFINED 55497232019168000                       # Cumulative time (in ticks) in various power states
system.pc.south_bridge.ide.power_state.pwrStateResidencyTicks::UNDEFINED 55497232019168000                       # Cumulative time (in ticks) in various power states
system.pc.south_bridge.pit.power_state.pwrStateResidencyTicks::UNDEFINED 55497232019168000                       # Cumulative time (in ticks) in various power states
system.pc.south_bridge.cmos.power_state.pwrStateResidencyTicks::UNDEFINED 55497232019168000                       # Cumulative time (in ticks) in various power states
system.pc.i_dont_exist2.power_state.pwrStateResidencyTicks::UNDEFINED 55497232019168000                       # Cumulative time (in ticks) in various power states
system.pc.i_dont_exist1.power_state.pwrStateResidencyTicks::UNDEFINED 55497232019168000                       # Cumulative time (in ticks) in various power states
system.pc.com_1.power_state.pwrStateResidencyTicks::UNDEFINED 55497232019168000                       # Cumulative time (in ticks) in various power states
system.pc.fake_floppy.power_state.pwrStateResidencyTicks::UNDEFINED 55497232019168000                       # Cumulative time (in ticks) in various power states
system.pc.behind_pci.power_state.pwrStateResidencyTicks::UNDEFINED 55497232019168000                       # Cumulative time (in ticks) in various power states
system.pc.pci_host.power_state.pwrStateResidencyTicks::UNDEFINED 55497232019168000                       # Cumulative time (in ticks) in various power states
system.switch_cpus2.dtb.walker.power_state.pwrStateResidencyTicks::UNDEFINED 55497232019168000                       # Cumulative time (in ticks) in various power states
system.switch_cpus2.itb.walker.power_state.pwrStateResidencyTicks::UNDEFINED 55497232019168000                       # Cumulative time (in ticks) in various power states
system.switch_cpus2.power_state.numTransitions            1                       # Number of power state transitions
system.switch_cpus2.power_state.pwrStateResidencyTicks::OFF 55497232019168000                       # Cumulative time (in ticks) in various power states
system.switch_cpus3.dtb.walker.power_state.pwrStateResidencyTicks::UNDEFINED 55497232019168000                       # Cumulative time (in ticks) in various power states
system.switch_cpus3.itb.walker.power_state.pwrStateResidencyTicks::UNDEFINED 55497232019168000                       # Cumulative time (in ticks) in various power states
system.switch_cpus3.power_state.numTransitions            1                       # Number of power state transitions
system.switch_cpus3.power_state.pwrStateResidencyTicks::OFF 55497232019168000                       # Cumulative time (in ticks) in various power states
system.switch_cpus0.dtb.walker.power_state.pwrStateResidencyTicks::UNDEFINED 55497232019168000                       # Cumulative time (in ticks) in various power states
system.switch_cpus0.itb.walker.power_state.pwrStateResidencyTicks::UNDEFINED 55497232019168000                       # Cumulative time (in ticks) in various power states
system.switch_cpus0.power_state.numTransitions            1                       # Number of power state transitions
system.switch_cpus0.power_state.pwrStateResidencyTicks::OFF 55497232019168000                       # Cumulative time (in ticks) in various power states
system.switch_cpus1.dtb.walker.power_state.pwrStateResidencyTicks::UNDEFINED 55497232019168000                       # Cumulative time (in ticks) in various power states
system.switch_cpus1.itb.walker.power_state.pwrStateResidencyTicks::UNDEFINED 55497232019168000                       # Cumulative time (in ticks) in various power states
system.switch_cpus1.power_state.numTransitions            1                       # Number of power state transitions
system.switch_cpus1.power_state.pwrStateResidencyTicks::OFF 55497232019168000                       # Cumulative time (in ticks) in various power states
system.sys_port_proxy.power_state.pwrStateResidencyTicks::UNDEFINED 55497232019168000                       # Cumulative time (in ticks) in various power states
system.cpu2.dtb.walker.power_state.pwrStateResidencyTicks::UNDEFINED 55497232019168000                       # Cumulative time (in ticks) in various power states
system.cpu2.interrupts.clk_domain.clock          8000                       # Clock period in ticks
system.cpu2.itb.walker.power_state.pwrStateResidencyTicks::UNDEFINED 55497232019168000                       # Cumulative time (in ticks) in various power states
system.cpu2.power_state.pwrStateResidencyTicks::ON 55497232019168000                       # Cumulative time (in ticks) in various power states
system.cpu3.dtb.walker.power_state.pwrStateResidencyTicks::UNDEFINED 55497232019168000                       # Cumulative time (in ticks) in various power states
system.cpu3.interrupts.clk_domain.clock          8000                       # Clock period in ticks
system.cpu3.itb.walker.power_state.pwrStateResidencyTicks::UNDEFINED 55497232019168000                       # Cumulative time (in ticks) in various power states
system.cpu3.power_state.pwrStateResidencyTicks::ON 55497232019168000                       # Cumulative time (in ticks) in various power states
system.cpu0.dtb.walker.power_state.pwrStateResidencyTicks::UNDEFINED 55497232019168000                       # Cumulative time (in ticks) in various power states
system.cpu0.interrupts.clk_domain.clock          8000                       # Clock period in ticks
system.cpu0.itb.walker.power_state.pwrStateResidencyTicks::UNDEFINED 55497232019168000                       # Cumulative time (in ticks) in various power states
system.cpu0.power_state.pwrStateResidencyTicks::ON 55497232019168000                       # Cumulative time (in ticks) in various power states
system.cpu1.dtb.walker.power_state.pwrStateResidencyTicks::UNDEFINED 55497232019168000                       # Cumulative time (in ticks) in various power states
system.cpu1.interrupts.clk_domain.clock          8000                       # Clock period in ticks
system.cpu1.itb.walker.power_state.pwrStateResidencyTicks::UNDEFINED 55497232019168000                       # Cumulative time (in ticks) in various power states
system.cpu1.power_state.pwrStateResidencyTicks::ON 55497232019168000                       # Cumulative time (in ticks) in various power states
system.ruby.l1_cntrl0.sequencer.power_state.pwrStateResidencyTicks::UNDEFINED 55497232019168000                       # Cumulative time (in ticks) in various power states
system.ruby.l1_cntrl0.power_state.pwrStateResidencyTicks::UNDEFINED 55497232019168000                       # Cumulative time (in ticks) in various power states
system.ruby.l1_cntrl1.sequencer.power_state.pwrStateResidencyTicks::UNDEFINED 55497232019168000                       # Cumulative time (in ticks) in various power states
system.ruby.l1_cntrl1.power_state.pwrStateResidencyTicks::UNDEFINED 55497232019168000                       # Cumulative time (in ticks) in various power states
system.ruby.l1_cntrl2.sequencer.power_state.pwrStateResidencyTicks::UNDEFINED 55497232019168000                       # Cumulative time (in ticks) in various power states
system.ruby.l1_cntrl2.power_state.pwrStateResidencyTicks::UNDEFINED 55497232019168000                       # Cumulative time (in ticks) in various power states
system.ruby.l1_cntrl3.sequencer.power_state.pwrStateResidencyTicks::UNDEFINED 55497232019168000                       # Cumulative time (in ticks) in various power states
system.ruby.l1_cntrl3.power_state.pwrStateResidencyTicks::UNDEFINED 55497232019168000                       # Cumulative time (in ticks) in various power states
system.ruby.clk_domain.clock                      500                       # Clock period in ticks
system.ruby.dma_cntrl0.dma_sequencer.power_state.pwrStateResidencyTicks::UNDEFINED 55497232019168000                       # Cumulative time (in ticks) in various power states
system.ruby.dma_cntrl0.power_state.pwrStateResidencyTicks::UNDEFINED 55497232019168000                       # Cumulative time (in ticks) in various power states
system.ruby.network.netifs8.power_state.pwrStateResidencyTicks::UNDEFINED 55497232019168000                       # Cumulative time (in ticks) in various power states
system.ruby.network.netifs9.power_state.pwrStateResidencyTicks::UNDEFINED 55497232019168000                       # Cumulative time (in ticks) in various power states
system.ruby.network.netifs6.power_state.pwrStateResidencyTicks::UNDEFINED 55497232019168000                       # Cumulative time (in ticks) in various power states
system.ruby.network.netifs7.power_state.pwrStateResidencyTicks::UNDEFINED 55497232019168000                       # Cumulative time (in ticks) in various power states
system.ruby.network.netifs4.power_state.pwrStateResidencyTicks::UNDEFINED 55497232019168000                       # Cumulative time (in ticks) in various power states
system.ruby.network.netifs5.power_state.pwrStateResidencyTicks::UNDEFINED 55497232019168000                       # Cumulative time (in ticks) in various power states
system.ruby.network.netifs2.power_state.pwrStateResidencyTicks::UNDEFINED 55497232019168000                       # Cumulative time (in ticks) in various power states
system.ruby.network.netifs3.power_state.pwrStateResidencyTicks::UNDEFINED 55497232019168000                       # Cumulative time (in ticks) in various power states
system.ruby.network.netifs0.power_state.pwrStateResidencyTicks::UNDEFINED 55497232019168000                       # Cumulative time (in ticks) in various power states
system.ruby.network.netifs1.power_state.pwrStateResidencyTicks::UNDEFINED 55497232019168000                       # Cumulative time (in ticks) in various power states
system.ruby.network.power_state.pwrStateResidencyTicks::UNDEFINED 55497232019168000                       # Cumulative time (in ticks) in various power states
system.ruby.network.int_links1.credit_link.power_state.pwrStateResidencyTicks::UNDEFINED 55497232019168000                       # Cumulative time (in ticks) in various power states
system.ruby.network.int_links1.network_link.power_state.pwrStateResidencyTicks::UNDEFINED 55497232019168000                       # Cumulative time (in ticks) in various power states
system.ruby.network.int_links0.credit_link.power_state.pwrStateResidencyTicks::UNDEFINED 55497232019168000                       # Cumulative time (in ticks) in various power states
system.ruby.network.int_links0.network_link.power_state.pwrStateResidencyTicks::UNDEFINED 55497232019168000                       # Cumulative time (in ticks) in various power states
system.ruby.network.int_links3.credit_link.power_state.pwrStateResidencyTicks::UNDEFINED 55497232019168000                       # Cumulative time (in ticks) in various power states
system.ruby.network.int_links3.network_link.power_state.pwrStateResidencyTicks::UNDEFINED 55497232019168000                       # Cumulative time (in ticks) in various power states
system.ruby.network.int_links2.credit_link.power_state.pwrStateResidencyTicks::UNDEFINED 55497232019168000                       # Cumulative time (in ticks) in various power states
system.ruby.network.int_links2.network_link.power_state.pwrStateResidencyTicks::UNDEFINED 55497232019168000                       # Cumulative time (in ticks) in various power states
system.ruby.network.int_links5.credit_link.power_state.pwrStateResidencyTicks::UNDEFINED 55497232019168000                       # Cumulative time (in ticks) in various power states
system.ruby.network.int_links5.network_link.power_state.pwrStateResidencyTicks::UNDEFINED 55497232019168000                       # Cumulative time (in ticks) in various power states
system.ruby.network.int_links4.credit_link.power_state.pwrStateResidencyTicks::UNDEFINED 55497232019168000                       # Cumulative time (in ticks) in various power states
system.ruby.network.int_links4.network_link.power_state.pwrStateResidencyTicks::UNDEFINED 55497232019168000                       # Cumulative time (in ticks) in various power states
system.ruby.network.int_links7.credit_link.power_state.pwrStateResidencyTicks::UNDEFINED 55497232019168000                       # Cumulative time (in ticks) in various power states
system.ruby.network.int_links7.network_link.power_state.pwrStateResidencyTicks::UNDEFINED 55497232019168000                       # Cumulative time (in ticks) in various power states
system.ruby.network.int_links6.credit_link.power_state.pwrStateResidencyTicks::UNDEFINED 55497232019168000                       # Cumulative time (in ticks) in various power states
system.ruby.network.int_links6.network_link.power_state.pwrStateResidencyTicks::UNDEFINED 55497232019168000                       # Cumulative time (in ticks) in various power states
system.ruby.network.ext_links9.credit_links0.power_state.pwrStateResidencyTicks::UNDEFINED 55497232019168000                       # Cumulative time (in ticks) in various power states
system.ruby.network.ext_links9.credit_links1.power_state.pwrStateResidencyTicks::UNDEFINED 55497232019168000                       # Cumulative time (in ticks) in various power states
system.ruby.network.ext_links9.network_links1.power_state.pwrStateResidencyTicks::UNDEFINED 55497232019168000                       # Cumulative time (in ticks) in various power states
system.ruby.network.ext_links9.network_links0.power_state.pwrStateResidencyTicks::UNDEFINED 55497232019168000                       # Cumulative time (in ticks) in various power states
system.ruby.network.ext_links8.credit_links0.power_state.pwrStateResidencyTicks::UNDEFINED 55497232019168000                       # Cumulative time (in ticks) in various power states
system.ruby.network.ext_links8.credit_links1.power_state.pwrStateResidencyTicks::UNDEFINED 55497232019168000                       # Cumulative time (in ticks) in various power states
system.ruby.network.ext_links8.network_links1.power_state.pwrStateResidencyTicks::UNDEFINED 55497232019168000                       # Cumulative time (in ticks) in various power states
system.ruby.network.ext_links8.network_links0.power_state.pwrStateResidencyTicks::UNDEFINED 55497232019168000                       # Cumulative time (in ticks) in various power states
system.ruby.network.ext_links7.credit_links0.power_state.pwrStateResidencyTicks::UNDEFINED 55497232019168000                       # Cumulative time (in ticks) in various power states
system.ruby.network.ext_links7.credit_links1.power_state.pwrStateResidencyTicks::UNDEFINED 55497232019168000                       # Cumulative time (in ticks) in various power states
system.ruby.network.ext_links7.network_links1.power_state.pwrStateResidencyTicks::UNDEFINED 55497232019168000                       # Cumulative time (in ticks) in various power states
system.ruby.network.ext_links7.network_links0.power_state.pwrStateResidencyTicks::UNDEFINED 55497232019168000                       # Cumulative time (in ticks) in various power states
system.ruby.network.ext_links6.credit_links0.power_state.pwrStateResidencyTicks::UNDEFINED 55497232019168000                       # Cumulative time (in ticks) in various power states
system.ruby.network.ext_links6.credit_links1.power_state.pwrStateResidencyTicks::UNDEFINED 55497232019168000                       # Cumulative time (in ticks) in various power states
system.ruby.network.ext_links6.network_links1.power_state.pwrStateResidencyTicks::UNDEFINED 55497232019168000                       # Cumulative time (in ticks) in various power states
system.ruby.network.ext_links6.network_links0.power_state.pwrStateResidencyTicks::UNDEFINED 55497232019168000                       # Cumulative time (in ticks) in various power states
system.ruby.network.ext_links5.credit_links0.power_state.pwrStateResidencyTicks::UNDEFINED 55497232019168000                       # Cumulative time (in ticks) in various power states
system.ruby.network.ext_links5.credit_links1.power_state.pwrStateResidencyTicks::UNDEFINED 55497232019168000                       # Cumulative time (in ticks) in various power states
system.ruby.network.ext_links5.network_links1.power_state.pwrStateResidencyTicks::UNDEFINED 55497232019168000                       # Cumulative time (in ticks) in various power states
system.ruby.network.ext_links5.network_links0.power_state.pwrStateResidencyTicks::UNDEFINED 55497232019168000                       # Cumulative time (in ticks) in various power states
system.ruby.network.ext_links4.credit_links0.power_state.pwrStateResidencyTicks::UNDEFINED 55497232019168000                       # Cumulative time (in ticks) in various power states
system.ruby.network.ext_links4.credit_links1.power_state.pwrStateResidencyTicks::UNDEFINED 55497232019168000                       # Cumulative time (in ticks) in various power states
system.ruby.network.ext_links4.network_links1.power_state.pwrStateResidencyTicks::UNDEFINED 55497232019168000                       # Cumulative time (in ticks) in various power states
system.ruby.network.ext_links4.network_links0.power_state.pwrStateResidencyTicks::UNDEFINED 55497232019168000                       # Cumulative time (in ticks) in various power states
system.ruby.network.ext_links3.credit_links0.power_state.pwrStateResidencyTicks::UNDEFINED 55497232019168000                       # Cumulative time (in ticks) in various power states
system.ruby.network.ext_links3.credit_links1.power_state.pwrStateResidencyTicks::UNDEFINED 55497232019168000                       # Cumulative time (in ticks) in various power states
system.ruby.network.ext_links3.network_links1.power_state.pwrStateResidencyTicks::UNDEFINED 55497232019168000                       # Cumulative time (in ticks) in various power states
system.ruby.network.ext_links3.network_links0.power_state.pwrStateResidencyTicks::UNDEFINED 55497232019168000                       # Cumulative time (in ticks) in various power states
system.ruby.network.ext_links2.credit_links0.power_state.pwrStateResidencyTicks::UNDEFINED 55497232019168000                       # Cumulative time (in ticks) in various power states
system.ruby.network.ext_links2.credit_links1.power_state.pwrStateResidencyTicks::UNDEFINED 55497232019168000                       # Cumulative time (in ticks) in various power states
system.ruby.network.ext_links2.network_links1.power_state.pwrStateResidencyTicks::UNDEFINED 55497232019168000                       # Cumulative time (in ticks) in various power states
system.ruby.network.ext_links2.network_links0.power_state.pwrStateResidencyTicks::UNDEFINED 55497232019168000                       # Cumulative time (in ticks) in various power states
system.ruby.network.ext_links1.credit_links0.power_state.pwrStateResidencyTicks::UNDEFINED 55497232019168000                       # Cumulative time (in ticks) in various power states
system.ruby.network.ext_links1.credit_links1.power_state.pwrStateResidencyTicks::UNDEFINED 55497232019168000                       # Cumulative time (in ticks) in various power states
system.ruby.network.ext_links1.network_links1.power_state.pwrStateResidencyTicks::UNDEFINED 55497232019168000                       # Cumulative time (in ticks) in various power states
system.ruby.network.ext_links1.network_links0.power_state.pwrStateResidencyTicks::UNDEFINED 55497232019168000                       # Cumulative time (in ticks) in various power states
system.ruby.network.ext_links0.credit_links0.power_state.pwrStateResidencyTicks::UNDEFINED 55497232019168000                       # Cumulative time (in ticks) in various power states
system.ruby.network.ext_links0.credit_links1.power_state.pwrStateResidencyTicks::UNDEFINED 55497232019168000                       # Cumulative time (in ticks) in various power states
system.ruby.network.ext_links0.network_links1.power_state.pwrStateResidencyTicks::UNDEFINED 55497232019168000                       # Cumulative time (in ticks) in various power states
[...]
system.mem_ctrls1.rank1.averagePower       542.148838                       # Core power per rank (mW)
system.mem_ctrls1.rank1.totalIdleTime               0                       # Total Idle time Per DRAM Rank
system.mem_ctrls1.rank1.memoryStateTime::IDLE 160351763035                       # Time in different power states
system.mem_ctrls1.rank1.memoryStateTime::REF  23589800000                       # Time in different power states
system.mem_ctrls1.rank1.memoryStateTime::SREF            0                       # Time in different power states
system.mem_ctrls1.rank1.memoryStateTime::PRE_PDN            0                       # Time in different power states
system.mem_ctrls1.rank1.memoryStateTime::ACT 522510613466                       # Time in different power states
system.mem_ctrls1.rank1.memoryStateTime::ACT_PDN            0                       # Time in different power states
system.mem_ctrls1.rank0.actEnergy          4006511040                       # Energy for activate commands per rank (pJ)
system.mem_ctrls1.rank0.preEnergy          2129495940                       # Energy for precharge commands per rank (pJ)
system.mem_ctrls1.rank0.readEnergy         8682332820                       # Energy for read commands per rank (pJ)
system.mem_ctrls1.rank0.writeEnergy         687019860                       # Energy for write commands per rank (pJ)
system.mem_ctrls1.rank0.refreshEnergy    55766287200.000008                       # Energy for refresh commands per rank (pJ)
system.mem_ctrls1.rank0.actBackEnergy    252047475210                       # Energy for active background per rank (pJ)
system.mem_ctrls1.rank0.preBackEnergy     59027096640                       # Energy for precharge background per rank (pJ)
system.mem_ctrls1.rank0.actPowerDownEnergy            0                       # Energy for active power-down per rank (pJ)
system.mem_ctrls1.rank0.prePowerDownEnergy            0                       # Energy for precharge power-down per rank (pJ)
system.mem_ctrls1.rank0.selfRefreshEnergy            0                       # Energy for self refresh per rank (pJ)
system.mem_ctrls1.rank0.totalEnergy      382346218710                       # Total energy per rank (pJ)
system.mem_ctrls1.rank0.averagePower       541.220243                       # Core power per rank (mW)
system.mem_ctrls1.rank0.totalIdleTime               0                       # Total Idle time Per DRAM Rank
system.mem_ctrls1.rank0.memoryStateTime::IDLE 151176115870                       # Time in different power states
system.mem_ctrls1.rank0.memoryStateTime::REF  23589800000                       # Time in different power states
system.mem_ctrls1.rank0.memoryStateTime::SREF            0                       # Time in different power states
system.mem_ctrls1.rank0.memoryStateTime::PRE_PDN            0                       # Time in different power states
system.mem_ctrls1.rank0.memoryStateTime::ACT 531686260631                       # Time in different power states
system.mem_ctrls1.rank0.memoryStateTime::ACT_PDN            0                       # Time in different power states
system.mem_ctrls1.power_state.pwrStateResidencyTicks::UNDEFINED 100913602010501                       # Cumulative time (in ticks) in various power states
system.cpu_voltage_domain.voltage                   1                       # Voltage in Volts
system.iobus.trans_dist::ReadReq                 1531                       # Transaction distribution
system.iobus.trans_dist::ReadResp                1531                       # Transaction distribution
system.iobus.trans_dist::WriteReq                5894                       # Transaction distribution
system.iobus.trans_dist::WriteResp               5894                       # Transaction distribution
system.iobus.pkt_count_system.pc.south_bridge.io_apic.int_master::system.ruby.l1_cntrl1.sequencer.pio-slave-port          488                       # Packet count per connected master and slave (bytes)
system.iobus.pkt_count_system.pc.south_bridge.io_apic.int_master::total          488                       # Packet count per connected master and slave (bytes)
system.iobus.pkt_count_system.ruby.l1_cntrl0.sequencer.mem-master-port::system.pc.south_bridge.ide.pio          170                       # Packet count per connected master and slave (bytes)
system.iobus.pkt_count_system.ruby.l1_cntrl0.sequencer.mem-master-port::system.ruby.l1_cntrl0.sequencer.pio-slave-port         1974                       # Packet count per connected master and slave (bytes)
system.iobus.pkt_count_system.ruby.l1_cntrl0.sequencer.mem-master-port::system.ruby.l1_cntrl1.sequencer.pio-slave-port           44                       # Packet count per connected master and slave (bytes)
system.iobus.pkt_count_system.ruby.l1_cntrl0.sequencer.mem-master-port::system.ruby.l1_cntrl2.sequencer.pio-slave-port           38                       # Packet count per connected master and slave (bytes)
system.iobus.pkt_count_system.ruby.l1_cntrl0.sequencer.mem-master-port::system.ruby.l1_cntrl3.sequencer.pio-slave-port           86                       # Packet count per connected master and slave (bytes)
system.iobus.pkt_count_system.ruby.l1_cntrl0.sequencer.mem-master-port::total         2312                       # Packet count per connected master and slave (bytes)
system.iobus.pkt_count_system.ruby.l1_cntrl1.sequencer.mem-master-port::system.pc.south_bridge.ide.pio         1536                       # Packet count per connected master and slave (bytes)
system.iobus.pkt_count_system.ruby.l1_cntrl1.sequencer.mem-master-port::system.pc.com_1.pio          924                       # Packet count per connected master and slave (bytes)
system.iobus.pkt_count_system.ruby.l1_cntrl1.sequencer.mem-master-port::system.ruby.l1_cntrl0.sequencer.pio-slave-port           26                       # Packet count per connected master and slave (bytes)
system.iobus.pkt_count_system.ruby.l1_cntrl1.sequencer.mem-master-port::system.ruby.l1_cntrl1.sequencer.pio-slave-port         1972                       # Packet count per connected master and slave (bytes)
system.iobus.pkt_count_system.ruby.l1_cntrl1.sequencer.mem-master-port::system.ruby.l1_cntrl2.sequencer.pio-slave-port           20                       # Packet count per connected master and slave (bytes)
system.iobus.pkt_count_system.ruby.l1_cntrl1.sequencer.mem-master-port::system.ruby.l1_cntrl3.sequencer.pio-slave-port           38                       # Packet count per connected master and slave (bytes)
system.iobus.pkt_count_system.ruby.l1_cntrl1.sequencer.mem-master-port::total         4516                       # Packet count per connected master and slave (bytes)
system.iobus.pkt_count_system.ruby.l1_cntrl2.sequencer.mem-master-port::system.pc.com_1.pio            4                       # Packet count per connected master and slave (bytes)
system.iobus.pkt_count_system.ruby.l1_cntrl2.sequencer.mem-master-port::system.ruby.l1_cntrl0.sequencer.pio-slave-port            8                       # Packet count per connected master and slave (bytes)
system.iobus.pkt_count_system.ruby.l1_cntrl2.sequencer.mem-master-port::system.ruby.l1_cntrl1.sequencer.pio-slave-port            8                       # Packet count per connected master and slave (bytes)
system.iobus.pkt_count_system.ruby.l1_cntrl2.sequencer.mem-master-port::system.ruby.l1_cntrl2.sequencer.pio-slave-port         1542                       # Packet count per connected master and slave (bytes)
system.iobus.pkt_count_system.ruby.l1_cntrl2.sequencer.mem-master-port::system.ruby.l1_cntrl3.sequencer.pio-slave-port            6                       # Packet count per connected master and slave (bytes)
system.iobus.pkt_count_system.ruby.l1_cntrl2.sequencer.mem-master-port::total         1568                       # Packet count per connected master and slave (bytes)
system.iobus.pkt_count_system.ruby.l1_cntrl3.sequencer.mem-master-port::system.pc.south_bridge.ide.pio         4182                       # Packet count per connected master and slave (bytes)
system.iobus.pkt_count_system.ruby.l1_cntrl3.sequencer.mem-master-port::system.ruby.l1_cntrl0.sequencer.pio-slave-port           24                       # Packet count per connected master and slave (bytes)
system.iobus.pkt_count_system.ruby.l1_cntrl3.sequencer.mem-master-port::system.ruby.l1_cntrl1.sequencer.pio-slave-port           20                       # Packet count per connected master and slave (bytes)
system.iobus.pkt_count_system.ruby.l1_cntrl3.sequencer.mem-master-port::system.ruby.l1_cntrl2.sequencer.pio-slave-port           20                       # Packet count per connected master and slave (bytes)
system.iobus.pkt_count_system.ruby.l1_cntrl3.sequencer.mem-master-port::system.ruby.l1_cntrl3.sequencer.pio-slave-port         1720                       # Packet count per connected master and slave (bytes)
system.iobus.pkt_count_system.ruby.l1_cntrl3.sequencer.mem-master-port::total         5966                       # Packet count per connected master and slave (bytes)
system.iobus.pkt_count::total                   14850                       # Packet count per connected master and slave (bytes)
system.iobus.pkt_size_system.pc.south_bridge.io_apic.int_master::system.ruby.l1_cntrl1.sequencer.pio-slave-port          976                       # Cumulative packet size per connected master and slave (bytes)
system.iobus.pkt_size_system.pc.south_bridge.io_apic.int_master::total          976                       # Cumulative packet size per connected master and slave (bytes)
system.iobus.pkt_size_system.ruby.l1_cntrl0.sequencer.mem-master-port::system.pc.south_bridge.ide.pio          100                       # Cumulative packet size per connected master and slave (bytes)
system.iobus.pkt_size_system.ruby.l1_cntrl0.sequencer.mem-master-port::system.ruby.l1_cntrl0.sequencer.pio-slave-port         3948                       # Cumulative packet size per connected master and slave (bytes)
system.iobus.pkt_size_system.ruby.l1_cntrl0.sequencer.mem-master-port::system.ruby.l1_cntrl1.sequencer.pio-slave-port           88                       # Cumulative packet size per connected master and slave (bytes)
system.iobus.pkt_size_system.ruby.l1_cntrl0.sequencer.mem-master-port::system.ruby.l1_cntrl2.sequencer.pio-slave-port           76                       # Cumulative packet size per connected master and slave (bytes)
system.iobus.pkt_size_system.ruby.l1_cntrl0.sequencer.mem-master-port::system.ruby.l1_cntrl3.sequencer.pio-slave-port          172                       # Cumulative packet size per connected master and slave (bytes)
system.iobus.pkt_size_system.ruby.l1_cntrl0.sequencer.mem-master-port::total         4384                       # Cumulative packet size per connected master and slave (bytes)
system.iobus.pkt_size_system.ruby.l1_cntrl1.sequencer.mem-master-port::system.pc.south_bridge.ide.pio          768                       # Cumulative packet size per connected master and slave (bytes)
system.iobus.pkt_size_system.ruby.l1_cntrl1.sequencer.mem-master-port::system.pc.com_1.pio          462                       # Cumulative packet size per connected master and slave (bytes)
system.iobus.pkt_size_system.ruby.l1_cntrl1.sequencer.mem-master-port::system.ruby.l1_cntrl0.sequencer.pio-slave-port           52                       # Cumulative packet size per connected master and slave (bytes)
system.iobus.pkt_size_system.ruby.l1_cntrl1.sequencer.mem-master-port::system.ruby.l1_cntrl1.sequencer.pio-slave-port         3944                       # Cumulative packet size per connected master and slave (bytes)
system.iobus.pkt_size_system.ruby.l1_cntrl1.sequencer.mem-master-port::system.ruby.l1_cntrl2.sequencer.pio-slave-port           40                       # Cumulative packet size per connected master and slave (bytes)
system.iobus.pkt_size_system.ruby.l1_cntrl1.sequencer.mem-master-port::system.ruby.l1_cntrl3.sequencer.pio-slave-port           76                       # Cumulative packet size per connected master and slave (bytes)
system.iobus.pkt_size_system.ruby.l1_cntrl1.sequencer.mem-master-port::total         5342                       # Cumulative packet size per connected master and slave (bytes)
system.iobus.pkt_size_system.ruby.l1_cntrl2.sequencer.mem-master-port::system.pc.com_1.pio            2                       # Cumulative packet size per connected master and slave (bytes)
system.iobus.pkt_size_system.ruby.l1_cntrl2.sequencer.mem-master-port::system.ruby.l1_cntrl0.sequencer.pio-slave-port           16                       # Cumulative packet size per connected master and slave (bytes)
system.iobus.pkt_size_system.ruby.l1_cntrl2.sequencer.mem-master-port::system.ruby.l1_cntrl1.sequencer.pio-slave-port           16                       # Cumulative packet size per connected master and slave (bytes)
system.iobus.pkt_size_system.ruby.l1_cntrl2.sequencer.mem-master-port::system.ruby.l1_cntrl2.sequencer.pio-slave-port         3084                       # Cumulative packet size per connected master and slave (bytes)
system.iobus.pkt_size_system.ruby.l1_cntrl2.sequencer.mem-master-port::system.ruby.l1_cntrl3.sequencer.pio-slave-port           12                       # Cumulative packet size per connected master and slave (bytes)
system.iobus.pkt_size_system.ruby.l1_cntrl2.sequencer.mem-master-port::total         3130                       # Cumulative packet size per connected master and slave (bytes)
system.iobus.pkt_size_system.ruby.l1_cntrl3.sequencer.mem-master-port::system.pc.south_bridge.ide.pio         2460                       # Cumulative packet size per connected master and slave (bytes)
system.iobus.pkt_size_system.ruby.l1_cntrl3.sequencer.mem-master-port::system.ruby.l1_cntrl0.sequencer.pio-slave-port           48                       # Cumulative packet size per connected master and slave (bytes)
system.iobus.pkt_size_system.ruby.l1_cntrl3.sequencer.mem-master-port::system.ruby.l1_cntrl1.sequencer.pio-slave-port           40                       # Cumulative packet size per connected master and slave (bytes)
system.iobus.pkt_size_system.ruby.l1_cntrl3.sequencer.mem-master-port::system.ruby.l1_cntrl2.sequencer.pio-slave-port           40                       # Cumulative packet size per connected master and slave (bytes)
system.iobus.pkt_size_system.ruby.l1_cntrl3.sequencer.mem-master-port::system.ruby.l1_cntrl3.sequencer.pio-slave-port         3440                       # Cumulative packet size per connected master and slave (bytes)
system.iobus.pkt_size_system.ruby.l1_cntrl3.sequencer.mem-master-port::total         6028                       # Cumulative packet size per connected master and slave (bytes)
system.iobus.pkt_size::total                    19860                       # Cumulative packet size per connected master and slave (bytes)
system.iobus.reqLayer2.occupancy              5230000                       # Layer occupancy (ticks)
system.iobus.reqLayer2.utilization                0.0                       # Layer utilization (%)
system.iobus.power_state.pwrStateResidencyTicks::UNDEFINED 100913602010501                       # Cumulative time (in ticks) in various power states
system.iobus.reqLayer19.occupancy             2117986                       # Layer occupancy (ticks)
system.iobus.reqLayer19.utilization               0.0                       # Layer utilization (%)
system.iobus.reqLayer17.occupancy             2531254                       # Layer occupancy (ticks)
system.iobus.reqLayer17.utilization               0.0                       # Layer utilization (%)
system.iobus.reqLayer12.occupancy              591500                       # Layer occupancy (ticks)
system.iobus.reqLayer12.utilization               0.0                       # Layer utilization (%)
system.iobus.reqLayer18.occupancy             3192239                       # Layer occupancy (ticks)
system.iobus.reqLayer18.utilization               0.0                       # Layer utilization (%)
system.iobus.respLayer9.occupancy             3934500                       # Layer occupancy (ticks)
system.iobus.respLayer9.utilization               0.0                       # Layer utilization (%)
system.iobus.respLayer5.occupancy             3649000                       # Layer occupancy (ticks)
system.iobus.respLayer5.utilization               0.0                       # Layer utilization (%)
system.iobus.respLayer7.occupancy             1179000                       # Layer occupancy (ticks)
system.iobus.respLayer7.utilization               0.0                       # Layer utilization (%)
system.iobus.respLayer0.occupancy              394872                       # Layer occupancy (ticks)
system.iobus.respLayer0.utilization               0.0                       # Layer utilization (%)
system.iobus.respLayer3.occupancy             1756000                       # Layer occupancy (ticks)
system.iobus.respLayer3.utilization               0.0                       # Layer utilization (%)
system.iobus.reqLayer20.occupancy             2346480                       # Layer occupancy (ticks)
system.iobus.reqLayer20.utilization               0.0                       # Layer utilization (%)

---------- End Simulation Statistics   ----------
 # Cumulative packet size per connected master and slave (bytes)
system.iobus.pkt_size::total                    15362                       # Cumulative packet size per connected master and slave (bytes)
system.iobus.reqLayer2.occupancy                42000                       # Layer occupancy (ticks)
system.iobus.reqLayer2.utilization                0.0                       # Layer utilization (%)
system.iobus.power_state.pwrStateResidencyTicks::UNDEFINED 98715190408501                       # Cumulative time (in ticks) in various power states
system.iobus.reqLayer19.occupancy             2346276                       # Layer occupancy (ticks)
system.iobus.reqLayer19.utilization               0.0                       # Layer utilization (%)
system.iobus.reqLayer17.occupancy             2286483                       # Layer occupancy (ticks)
system.iobus.reqLayer17.utilization               0.0                       # Layer utilization (%)
system.iobus.reqLayer12.occupancy              673000                       # Layer occupancy (ticks)
system.iobus.reqLayer12.utilization               0.0                       # Layer utilization (%)
system.iobus.reqLayer18.occupancy             2546479                       # Layer occupancy (ticks)
system.iobus.reqLayer18.utilization               0.0                       # Layer utilization (%)
system.iobus.respLayer9.occupancy             1275500                       # Layer occupancy (ticks)
system.iobus.respLayer9.utilization               0.0                       # Layer utilization (%)
system.iobus.respLayer5.occupancy             2348500                       # Layer occupancy (ticks)
system.iobus.respLayer5.utilization               0.0                       # Layer utilization (%)
system.iobus.respLayer7.occupancy             1405000                       # Layer occupancy (ticks)
system.iobus.respLayer7.utilization               0.0                       # Layer utilization (%)
system.iobus.respLayer0.occupancy              185999                       # Layer occupancy (ticks)
system.iobus.respLayer0.utilization               0.0                       # Layer utilization (%)
system.iobus.respLayer3.occupancy             1317500                       # Layer occupancy (ticks)
system.iobus.respLayer3.utilization               0.0                       # Layer utilization (%)
system.iobus.reqLayer20.occupancy             2186478                       # Layer occupancy (ticks)
system.iobus.reqLayer20.utilization               0.0                       # Layer utilization (%)

---------- End Simulation Statistics   ----------
