
---------- Begin Simulation Statistics ----------
final_tick                               102378717103001                       # Number of ticks from beginning of simulation (restored from checkpoints and never reset)
host_inst_rate                                1002358                       # Simulator instruction rate (inst/s)
host_mem_usage                                1606648                       # Number of bytes of host memory used
host_op_rate                                  1183076                       # Simulator op (including micro ops) rate (op/s)
host_seconds                                  6443.68                       # Real time elapsed on the host
host_tick_rate                              106403889                       # Simulator tick rate (ticks/s)
sim_freq                                 1000000000000                       # Frequency of simulated ticks
sim_insts                                  6458880071                       # Number of instructions simulated
sim_ops                                    7623370448                       # Number of ops (including micro ops) simulated
sim_seconds                                  0.685633                       # Number of seconds simulated
sim_ticks                                685633029501                       # Number of ticks simulated
system.cpu0.committedInsts                          0                       # Number of instructions committed
system.cpu0.dtb.rdAccesses                          0                       # TLB accesses on read requests
system.cpu0.dtb.rdMisses                            0                       # TLB misses on read requests
system.cpu0.dtb.wrAccesses                          0                       # TLB accesses on write requests
system.cpu0.dtb.wrMisses                            0                       # TLB misses on write requests
system.cpu0.itb.rdAccesses                          0                       # TLB accesses on read requests
system.cpu0.itb.rdMisses                            0                       # TLB misses on read requests
system.cpu0.itb.wrAccesses                          0                       # TLB accesses on write requests
system.cpu0.itb.wrMisses                            0                       # TLB misses on write requests
system.cpu0.kern.inst.arm                           0                       # number of arm instructions executed
system.cpu0.kern.inst.quiesce                       0                       # number of quiesce instructions executed
system.cpu0.numCoalescedMMIO                        0                       # number of coalesced memory mapped IO requests
system.cpu0.numCycles                               0                       # number of cpu cycles simulated
system.cpu0.numExitSignal                           0                       # exits due to signal delivery
system.cpu0.numHalt                                 0                       # number of VM exits due to wait for interrupt instructions
system.cpu0.numHypercalls                           0                       # number of hypercalls
system.cpu0.numIO                                   0                       # number of VM exits due to legacy IO
system.cpu0.numInterrupts                           0                       # number of interrupts delivered
system.cpu0.numMMIO                                 0                       # number of VM exits due to memory mapped IO
system.cpu0.numVMExits                              0                       # total number of KVM exits
system.cpu0.numVMHalfEntries                        0                       # number of KVM entries to finalize pending operations
system.cpu0.numWorkItemsCompleted                   0                       # number of work items this cpu completed
system.cpu0.numWorkItemsStarted                     0                       # number of work items this cpu started
system.cpu1.committedInsts                          0                       # Number of instructions committed
system.cpu1.dtb.rdAccesses                          0                       # TLB accesses on read requests
system.cpu1.dtb.rdMisses                            0                       # TLB misses on read requests
system.cpu1.dtb.wrAccesses                          0                       # TLB accesses on write requests
system.cpu1.dtb.wrMisses                            0                       # TLB misses on write requests
system.cpu1.itb.rdAccesses                          0                       # TLB accesses on read requests
system.cpu1.itb.rdMisses                            0                       # TLB misses on read requests
system.cpu1.itb.wrAccesses                          0                       # TLB accesses on write requests
system.cpu1.itb.wrMisses                            0                       # TLB misses on write requests
system.cpu1.kern.inst.arm                           0                       # number of arm instructions executed
system.cpu1.kern.inst.quiesce                       0                       # number of quiesce instructions executed
system.cpu1.numCoalescedMMIO                        0                       # number of coalesced memory mapped IO requests
system.cpu1.numCycles                               0                       # number of cpu cycles simulated
system.cpu1.numExitSignal                           0                       # exits due to signal delivery
system.cpu1.numHalt                                 0                       # number of VM exits due to wait for interrupt instructions
system.cpu1.numHypercalls                           0                       # number of hypercalls
system.cpu1.numIO                                   0                       # number of VM exits due to legacy IO
system.cpu1.numInterrupts                           0                       # number of interrupts delivered
system.cpu1.numMMIO                                 0                       # number of VM exits due to memory mapped IO
system.cpu1.numVMExits                              0                       # total number of KVM exits
system.cpu1.numVMHalfEntries                        0                       # number of KVM entries to finalize pending operations
system.cpu1.numWorkItemsCompleted                   0                       # number of work items this cpu completed
system.cpu1.numWorkItemsStarted                     0                       # number of work items this cpu started
system.cpu2.committedInsts                          0                       # Number of instructions committed
system.cpu2.dtb.rdAccesses                          0                       # TLB accesses on read requests
system.cpu2.dtb.rdMisses                            0                       # TLB misses on read requests
system.cpu2.dtb.wrAccesses                          0                       # TLB accesses on write requests
system.cpu2.dtb.wrMisses                            0                       # TLB misses on write requests
system.cpu2.itb.rdAccesses                          0                       # TLB accesses on read requests
system.cpu2.itb.rdMisses                            0                       # TLB misses on read requests
system.cpu2.itb.wrAccesses                          0                       # TLB accesses on write requests
system.cpu2.itb.wrMisses                            0                       # TLB misses on write requests
system.cpu2.kern.inst.arm                           0                       # number of arm instructions executed
system.cpu2.kern.inst.quiesce                       0                       # number of quiesce instructions executed
system.cpu2.numCoalescedMMIO                        0                       # number of coalesced memory mapped IO requests
system.cpu2.numCycles                               0                       # number of cpu cycles simulated
system.cpu2.numExitSignal                           0                       # exits due to signal delivery
system.cpu2.numHalt                                 0                       # number of VM exits due to wait for interrupt instructions
system.cpu2.numHypercalls                           0                       # number of hypercalls
system.cpu2.numIO                                   0                       # number of VM exits due to legacy IO
system.cpu2.numInterrupts                           0                       # number of interrupts delivered
system.cpu2.numMMIO                                 0                       # number of VM exits due to memory mapped IO
system.cpu2.numVMExits                              0                       # total number of KVM exits
system.cpu2.numVMHalfEntries                        0                       # number of KVM entries to finalize pending operations
system.cpu2.numWorkItemsCompleted                   0                       # number of work items this cpu completed
system.cpu2.numWorkItemsStarted                     0                       # number of work items this cpu started
system.cpu3.committedInsts                          0                       # Number of instructions committed
system.cpu3.dtb.rdAccesses                          0                       # TLB accesses on read requests
system.cpu3.dtb.rdMisses                            0                       # TLB misses on read requests
system.cpu3.dtb.wrAccesses                          0                       # TLB accesses on write requests
system.cpu3.dtb.wrMisses                            0                       # TLB misses on write requests
system.cpu3.itb.rdAccesses                          0                       # TLB accesses on read requests
system.cpu3.itb.rdMisses                            0                       # TLB misses on read requests
system.cpu3.itb.wrAccesses                          0                       # TLB accesses on write requests
system.cpu3.itb.wrMisses                            0                       # TLB misses on write requests
system.cpu3.kern.inst.arm                           0                       # number of arm instructions executed
system.cpu3.kern.inst.quiesce                       0                       # number of quiesce instructions executed
system.cpu3.numCoalescedMMIO                        0                       # number of coalesced memory mapped IO requests
system.cpu3.numCycles                               0                       # number of cpu cycles simulated
system.cpu3.numExitSignal                           0                       # exits due to signal delivery
system.cpu3.numHalt                                 0                       # number of VM exits due to wait for interrupt instructions
system.cpu3.numHypercalls                           0                       # number of hypercalls
system.cpu3.numIO                                   0                       # number of VM exits due to legacy IO
system.cpu3.numInterrupts                           0                       # number of interrupts delivered
system.cpu3.numMMIO                                 0                       # number of VM exits due to memory mapped IO
system.cpu3.numVMExits                              0                       # total number of KVM exits
system.cpu3.numVMHalfEntries                        0                       # number of KVM entries to finalize pending operations
system.cpu3.numWorkItemsCompleted                   0                       # number of work items this cpu completed
system.cpu3.numWorkItemsStarted                     0                       # number of work items this cpu started
system.pc.south_bridge.ide.disks.dma_read_bytes       253952                       # Number of bytes transfered via DMA reads (not PRD).
system.pc.south_bridge.ide.disks.dma_read_full_pages           62                       # Number of full page size DMA reads (not PRD).
system.pc.south_bridge.ide.disks.dma_read_txs           62                       # Number of DMA read transactions (not PRD).
system.pc.south_bridge.ide.disks.dma_write_bytes            0                       # Number of bytes transfered via DMA writes.
system.pc.south_bridge.ide.disks.dma_write_full_pages            0                       # Number of full page size DMA writes.
system.pc.south_bridge.ide.disks.dma_write_txs            0                       # Number of DMA write transactions.
system.ruby.DMA_Controller.I.allocI_load |        3977    100.00%    100.00% |           0      0.00%    100.00%
system.ruby.DMA_Controller.I.allocI_load::total         3977                      
system.ruby.DMA_Controller.I.deallocfwdfrom_in |        2953    100.00%    100.00% |           0      0.00%    100.00%
system.ruby.DMA_Controller.I.deallocfwdfrom_in::total         2953                      
system.ruby.DMA_Controller.S.SloadSEvent |          52    100.00%    100.00% |           0      0.00%    100.00%
system.ruby.DMA_Controller.S.SloadSEvent::total           52                      
system.ruby.DMA_Controller.S.allocTBE    |        2956    100.00%    100.00% |           0      0.00%    100.00%
system.ruby.DMA_Controller.S.allocTBE::total         2956                      
system.ruby.DMA_Controller.S.externalloadSrespfrom_in |        3977    100.00%    100.00% |           0      0.00%    100.00%
system.ruby.DMA_Controller.S.externalloadSrespfrom_in::total         3977                      
system.ruby.DMA_Controller.S_evict.Stallmandatory_in |        8888    100.00%    100.00% |           0      0.00%    100.00%
system.ruby.DMA_Controller.S_evict.Stallmandatory_in::total         8888                      
system.ruby.DMA_Controller.SloadSEvent   |          52    100.00%    100.00% |           0      0.00%    100.00%
system.ruby.DMA_Controller.SloadSEvent::total           52                      
system.ruby.DMA_Controller.Stallmandatory_in |        8888    100.00%    100.00% |           0      0.00%    100.00%
system.ruby.DMA_Controller.Stallmandatory_in::total         8888                      
system.ruby.DMA_Controller.allocI_load   |        3977    100.00%    100.00% |           0      0.00%    100.00%
system.ruby.DMA_Controller.allocI_load::total         3977                      
system.ruby.DMA_Controller.allocTBE      |        2956    100.00%    100.00% |           0      0.00%    100.00%
system.ruby.DMA_Controller.allocTBE::total         2956                      
system.ruby.DMA_Controller.deallocfwdfrom_in |        2953    100.00%    100.00% |           0      0.00%    100.00%
system.ruby.DMA_Controller.deallocfwdfrom_in::total         2953                      
system.ruby.DMA_Controller.externalloadSrespfrom_in |        3977    100.00%    100.00% |           0      0.00%    100.00%
system.ruby.DMA_Controller.externalloadSrespfrom_in::total         3977                      
system.ruby.Directory_Controller.I.allocTBE |      592801     25.56%     25.56% |      581151     25.05%     50.61% |      578455     24.94%     75.55% |      567225     24.45%    100.00%
system.ruby.Directory_Controller.I.allocTBE::total      2319632                      
system.ruby.Directory_Controller.I.deallocTBE |      591973     25.56%     25.56% |      580317     25.05%     50.61% |      577625     24.94%     75.55% |      566400     24.45%    100.00%
system.ruby.Directory_Controller.I.deallocTBE::total      2316315                      
system.ruby.Directory_Controller.I_GetML1C1C1_0.Stallreqto_in |          74     23.57%     23.57% |          92     29.30%     52.87% |          85     27.07%     79.94% |          63     20.06%    100.00%
system.ruby.Directory_Controller.I_GetML1C1C1_0.Stallreqto_in::total          314                      
system.ruby.Directory_Controller.I_GetSL1C1C1_0.Stallreqto_in |        1248     26.89%     26.89% |        1377     29.67%     56.56% |        1103     23.77%     80.33% |         913     19.67%    100.00%
system.ruby.Directory_Controller.I_GetSL1C1C1_0.Stallreqto_in::total         4641                      
system.ruby.Directory_Controller.M.allocTBE |      289652     25.17%     25.17% |      289868     25.19%     50.37% |      286335     24.89%     75.25% |      284770     24.75%    100.00%
system.ruby.Directory_Controller.M.allocTBE::total      1150625                      
system.ruby.Directory_Controller.M.deallocTBE |      289788     25.17%     25.17% |      289999     25.19%     50.37% |      286473     24.89%     75.25% |      284892     24.75%    100.00%
system.ruby.Directory_Controller.M.deallocTBE::total      1151152                      
system.ruby.Directory_Controller.M_GetM.Progress |       13758     24.29%     24.29% |       15223     26.87%     51.16% |       13651     24.10%     75.26% |       14012     24.74%    100.00%
system.ruby.Directory_Controller.M_GetM.Progress::total        56644                      
system.ruby.Directory_Controller.M_GetM.Stallreqto_in |          24      2.30%      2.30% |         957     91.84%     94.15% |          35      3.36%     97.50% |          26      2.50%    100.00%
system.ruby.Directory_Controller.M_GetM.Stallreqto_in::total         1042                      
system.ruby.Directory_Controller.M_GetS.Progress |       16961     26.28%     26.28% |       16781     26.00%     52.28% |       15381     23.83%     76.11% |       15420     23.89%    100.00%
system.ruby.Directory_Controller.M_GetS.Progress::total        64543                      
system.ruby.Directory_Controller.M_GetS.Stallreqto_in |         871     38.49%     38.49% |         971     42.91%     81.40% |         182      8.04%     89.44% |         239     10.56%    100.00%
system.ruby.Directory_Controller.M_GetS.Stallreqto_in::total         2263                      
system.ruby.Directory_Controller.M_GetS_WBL1C1C1_0.Stallreqto_in |        4745     27.77%     27.77% |        4636     27.13%     54.89% |        3757     21.98%     76.88% |        3951     23.12%    100.00%
system.ruby.Directory_Controller.M_GetS_WBL1C1C1_0.Stallreqto_in::total        17089                      
system.ruby.Directory_Controller.M_PutML1C1C1_0.Stallreqto_in |           0      0.00%      0.00% |           4     36.36%     36.36% |           6     54.55%     90.91% |           1      9.09%    100.00%
system.ruby.Directory_Controller.M_PutML1C1C1_0.Stallreqto_in::total           11                      
system.ruby.Directory_Controller.Progress |       30719     25.35%     25.35% |       32004     26.41%     51.76% |       29032     23.96%     75.71% |       29432     24.29%    100.00%
system.ruby.Directory_Controller.Progress::total       121187                      
system.ruby.Directory_Controller.S.allocTBE |      741414     24.56%     24.56% |      777034     25.75%     50.31% |      767482     25.43%     75.74% |      732263     24.26%    100.00%
system.ruby.Directory_Controller.S.allocTBE::total      3018193                      
system.ruby.Directory_Controller.S.deallocTBE |      742106     24.57%     24.57% |      777737     25.74%     50.31% |      768174     25.43%     75.74% |      732965     24.26%    100.00%
system.ruby.Directory_Controller.S.deallocTBE::total      3020982                      
system.ruby.Directory_Controller.S_GetM.Stallreqto_in |        3855     23.14%     23.14% |        6277     37.69%     60.83% |        3014     18.10%     78.93% |        3510     21.07%    100.00%
system.ruby.Directory_Controller.S_GetM.Stallreqto_in::total        16656                      
system.ruby.Directory_Controller.S_GetM.allocTBE |       17233     26.47%     26.47% |       16786     25.78%     52.25% |       15581     23.93%     76.19% |       15504     23.81%    100.00%
system.ruby.Directory_Controller.S_GetM.allocTBE::total        65104                      
system.ruby.Directory_Controller.S_GetM.deallocTBE |       17233     26.47%     26.47% |       16786     25.78%     52.25% |       15581     23.93%     76.19% |       15504     23.81%    100.00%
system.ruby.Directory_Controller.S_GetM.deallocTBE::total        65104                      
system.ruby.Directory_Controller.S_GetML1C1C1_0.Stallreqto_in |           0      0.00%      0.00% |         272    100.00%    100.00% |           0      0.00%    100.00% |           0      0.00%    100.00%
system.ruby.Directory_Controller.S_GetML1C1C1_0.Stallreqto_in::total          272                      
system.ruby.Directory_Controller.S_GetML1C1C1_2.Stallreqto_in |        2444     21.41%     21.41% |        4288     37.57%     58.99% |        2052     17.98%     76.96% |        2629     23.04%    100.00%
system.ruby.Directory_Controller.S_GetML1C1C1_2.Stallreqto_in::total        11413                      
system.ruby.Directory_Controller.S_GetML1C1C1_3.Stallreqto_in |           2      7.69%      7.69% |           7     26.92%     34.62% |           8     30.77%     65.38% |           9     34.62%    100.00%
system.ruby.Directory_Controller.S_GetML1C1C1_3.Stallreqto_in::total           26                      
system.ruby.Directory_Controller.S_GetSL1C1C1_0.Stallreqto_in |         671     24.50%     24.50% |        1382     50.46%     74.95% |         462     16.87%     91.82% |         224      8.18%    100.00%
system.ruby.Directory_Controller.S_GetSL1C1C1_0.Stallreqto_in::total         2739                      
system.ruby.Directory_Controller.Stallreqto_in |       13934     24.68%     24.68% |       20263     35.89%     60.56% |       10704     18.96%     79.52% |       11565     20.48%    100.00%
system.ruby.Directory_Controller.Stallreqto_in::total        56466                      
system.ruby.Directory_Controller.allocTBE |     1641100     25.04%     25.04% |     1664839     25.40%     50.44% |     1647853     25.14%     75.59% |     1599762     24.41%    100.00%
system.ruby.Directory_Controller.allocTBE::total      6553554                      
system.ruby.Directory_Controller.deallocTBE |     1641100     25.04%     25.04% |     1664839     25.40%     50.44% |     1647853     25.14%     75.59% |     1599761     24.41%    100.00%
system.ruby.Directory_Controller.deallocTBE::total      6553553                      
system.ruby.IFETCH.hit_latency_hist_seqr::bucket_size            1                      
system.ruby.IFETCH.hit_latency_hist_seqr::max_bucket            9                      
system.ruby.IFETCH.hit_latency_hist_seqr::samples   1998950781                      
system.ruby.IFETCH.hit_latency_hist_seqr |  1998950781    100.00%    100.00% |           0      0.00%    100.00% |           0      0.00%    100.00% |           0      0.00%    100.00% |           0      0.00%    100.00% |           0      0.00%    100.00% |           0      0.00%    100.00% |           0      0.00%    100.00% |           0      0.00%    100.00% |           0      0.00%    100.00%
system.ruby.IFETCH.hit_latency_hist_seqr::total   1998950781                      
system.ruby.IFETCH.latency_hist_seqr::bucket_size            1                      
system.ruby.IFETCH.latency_hist_seqr::max_bucket            9                      
system.ruby.IFETCH.latency_hist_seqr::samples   1999383889                      
system.ruby.IFETCH.latency_hist_seqr     |  1999383889    100.00%    100.00% |           0      0.00%    100.00% |           0      0.00%    100.00% |           0      0.00%    100.00% |           0      0.00%    100.00% |           0      0.00%    100.00% |           0      0.00%    100.00% |           0      0.00%    100.00% |           0      0.00%    100.00% |           0      0.00%    100.00%
system.ruby.IFETCH.latency_hist_seqr::total   1999383889                      
system.ruby.IFETCH.miss_latency_hist_seqr::bucket_size            1                      
system.ruby.IFETCH.miss_latency_hist_seqr::max_bucket            9                      
system.ruby.IFETCH.miss_latency_hist_seqr::samples       433108                      
system.ruby.IFETCH.miss_latency_hist_seqr |      433108    100.00%    100.00% |           0      0.00%    100.00% |           0      0.00%    100.00% |           0      0.00%    100.00% |           0      0.00%    100.00% |           0      0.00%    100.00% |           0      0.00%    100.00% |           0      0.00%    100.00% |           0      0.00%    100.00% |           0      0.00%    100.00%
system.ruby.IFETCH.miss_latency_hist_seqr::total       433108                      
system.ruby.L1Cache_Controller.I.allocI_load |      585047     24.08%     24.08% |      630189     25.93%     50.01% |      583165     24.00%     74.01% |      631502     25.99%    100.00%
system.ruby.L1Cache_Controller.I.allocI_load::total      2429903                      
system.ruby.L1Cache_Controller.I.allocI_store |      130559     21.81%     21.81% |      155349     25.95%     47.76% |      158371     26.46%     74.22% |      154320     25.78%    100.00%
system.ruby.L1Cache_Controller.I.allocI_store::total       598599                      
system.ruby.L1Cache_Controller.I.deallocfwdfrom_in |      714597     23.63%     23.63% |      784520     25.94%     49.57% |      740522     24.48%     74.05% |      784822     25.95%    100.00%
system.ruby.L1Cache_Controller.I.deallocfwdfrom_in::total      3024461                      
system.ruby.L1Cache_Controller.I_store.Progress |        1747     37.25%     37.25% |        1036     22.09%     59.34% |         836     17.83%     77.16% |        1071     22.84%    100.00%
system.ruby.L1Cache_Controller.I_store.Progress::total         4690                      
system.ruby.L1Cache_Controller.I_store.Stallfwdfrom_in |         253     21.57%     21.57% |         362     30.86%     52.43% |         240     20.46%     72.89% |         318     27.11%    100.00%
system.ruby.L1Cache_Controller.I_store.Stallfwdfrom_in::total         1173                      
system.ruby.L1Cache_Controller.M.MloadMEvent |    17927883     24.43%     24.43% |    19138027     26.08%     50.51% |    17742310     24.18%     74.69% |    18569880     25.31%    100.00%
system.ruby.L1Cache_Controller.M.MloadMEvent::total     73378100                      
system.ruby.L1Cache_Controller.M.MstoreMEvent |    14220079     24.22%     24.22% |    15194024     25.88%     50.09% |    13972159     23.80%     73.89% |    15331547     26.11%    100.00%
system.ruby.L1Cache_Controller.M.MstoreMEvent::total     58717809                      
system.ruby.L1Cache_Controller.M.allocTBE |      265073     23.04%     23.04% |      296900     25.80%     48.84% |      289174     25.13%     73.97% |      299462     26.03%    100.00%
system.ruby.L1Cache_Controller.M.allocTBE::total      1150609                      
system.ruby.L1Cache_Controller.M.externalstoreMrespfrom_in |      265198     23.04%     23.04% |      297034     25.80%     48.84% |      289309     25.13%     73.97% |      299595     26.03%    100.00%
system.ruby.L1Cache_Controller.M.externalstoreMrespfrom_in::total      1151136                      
system.ruby.L1Cache_Controller.M_evict.Stallmandatory_in |        6339     23.50%     23.50% |        6307     23.38%     46.87% |        6452     23.91%     70.79% |        7882     29.21%    100.00%
system.ruby.L1Cache_Controller.M_evict.Stallmandatory_in::total        26980                      
system.ruby.L1Cache_Controller.M_evict_x_I.Progress |           0      0.00%      0.00% |           0      0.00%      0.00% |           1    100.00%    100.00% |           0      0.00%    100.00%
system.ruby.L1Cache_Controller.M_evict_x_I.Progress::total            1                      
system.ruby.L1Cache_Controller.M_evict_x_I.Stallmandatory_in |           0      0.00%      0.00% |           0      0.00%      0.00% |           3    100.00%    100.00% |           0      0.00%    100.00%
system.ruby.L1Cache_Controller.M_evict_x_I.Stallmandatory_in::total            3                      
system.ruby.L1Cache_Controller.MloadMEvent |    17927883     24.43%     24.43% |    19138027     26.08%     50.51% |    17742310     24.18%     74.69% |    18569880     25.31%    100.00%
system.ruby.L1Cache_Controller.MloadMEvent::total     73378100                      
system.ruby.L1Cache_Controller.MstoreMEvent |    14220079     24.22%     24.22% |    15194024     25.88%     50.09% |    13972159     23.80%     73.89% |    15331547     26.11%    100.00%
system.ruby.L1Cache_Controller.MstoreMEvent::total     58717809                      
system.ruby.L1Cache_Controller.Progress  |      155586     24.83%     24.83% |      161516     25.77%     50.60% |      149814     23.90%     74.50% |      159808     25.50%    100.00%
system.ruby.L1Cache_Controller.Progress::total       626724                      
system.ruby.L1Cache_Controller.S.SloadSEvent |   562030662     24.34%     24.34% |   588506143     25.48%     49.82% |   566374337     24.53%     74.35% |   592323293     25.65%    100.00%
system.ruby.L1Cache_Controller.S.SloadSEvent::total   2309234435                      
system.ruby.L1Cache_Controller.S.allocTBE |      604165     24.25%     24.25% |      641890     25.77%     50.02% |      594817     23.88%     73.90% |      650049     26.10%    100.00%
system.ruby.L1Cache_Controller.S.allocTBE::total      2490921                      
system.ruby.L1Cache_Controller.S.deallocTBE |       20002     31.00%     31.00% |       12585     19.50%     50.50% |       12531     19.42%     69.92% |       19414     30.08%    100.00%
system.ruby.L1Cache_Controller.S.deallocTBE::total        64532                      
system.ruby.L1Cache_Controller.S.externalloadSrespfrom_in |      585047     24.08%     24.08% |      630188     25.93%     50.01% |      583165     24.00%     74.01% |      631502     25.99%    100.00%
system.ruby.L1Cache_Controller.S.externalloadSrespfrom_in::total      2429902                      
system.ruby.L1Cache_Controller.S_evict.Progress |           2     18.18%     18.18% |           1      9.09%     27.27% |           1      9.09%     36.36% |           7     63.64%    100.00%
system.ruby.L1Cache_Controller.S_evict.Progress::total           11                      
system.ruby.L1Cache_Controller.S_evict.Stallmandatory_in |        1188     25.43%     25.43% |         908     19.44%     44.87% |        1093     23.40%     68.27% |        1482     31.73%    100.00%
system.ruby.L1Cache_Controller.S_evict.Stallmandatory_in::total         4671                      
system.ruby.L1Cache_Controller.S_evict_x_I.Progress |           2     13.33%     13.33% |           2     13.33%     26.67% |           4     26.67%     53.33% |           7     46.67%    100.00%
system.ruby.L1Cache_Controller.S_evict_x_I.Progress::total           15                      
system.ruby.L1Cache_Controller.S_evict_x_I.Stallmandatory_in |          10     13.51%     13.51% |          12     16.22%     29.73% |          20     27.03%     56.76% |          32     43.24%    100.00%
system.ruby.L1Cache_Controller.S_evict_x_I.Stallmandatory_in::total           74                      
system.ruby.L1Cache_Controller.S_store.Progress |      153835     24.73%     24.73% |      160477     25.80%     50.53% |      148972     23.95%     74.48% |      158723     25.52%    100.00%
system.ruby.L1Cache_Controller.S_store.Progress::total       622007                      
system.ruby.L1Cache_Controller.S_store.Stallfwdfrom_in |          21     55.26%     55.26% |           5     13.16%     68.42% |           6     15.79%     84.21% |           6     15.79%    100.00%
system.ruby.L1Cache_Controller.S_store.Stallfwdfrom_in::total           38                      
system.ruby.L1Cache_Controller.SloadSEvent |   562030662     24.34%     24.34% |   588506143     25.48%     49.82% |   566374337     24.53%     74.35% |   592323293     25.65%    100.00%
system.ruby.L1Cache_Controller.SloadSEvent::total   2309234435                      
system.ruby.L1Cache_Controller.Stallfwdfrom_in |         274     22.63%     22.63% |         367     30.31%     52.93% |         246     20.31%     73.25% |         324     26.75%    100.00%
system.ruby.L1Cache_Controller.Stallfwdfrom_in::total         1211                      
system.ruby.L1Cache_Controller.Stallmandatory_in |        7537     23.76%     23.76% |        7227     22.78%     46.53% |        7568     23.85%     70.39% |        9396     29.61%    100.00%
system.ruby.L1Cache_Controller.Stallmandatory_in::total        31728                      
system.ruby.L1Cache_Controller.allocI_load |      585047     24.08%     24.08% |      630189     25.93%     50.01% |      583165     24.00%     74.01% |      631502     25.99%    100.00%
system.ruby.L1Cache_Controller.allocI_load::total      2429903                      
system.ruby.L1Cache_Controller.allocI_store |      130559     21.81%     21.81% |      155349     25.95%     47.76% |      158371     26.46%     74.22% |      154320     25.78%    100.00%
system.ruby.L1Cache_Controller.allocI_store::total       598599                      
system.ruby.L1Cache_Controller.allocTBE  |      869238     23.87%     23.87% |      938790     25.78%     49.65% |      883991     24.28%     73.93% |      949511     26.07%    100.00%
system.ruby.L1Cache_Controller.allocTBE::total      3641530                      
system.ruby.L1Cache_Controller.deallocTBE |       20002     31.00%     31.00% |       12585     19.50%     50.50% |       12531     19.42%     69.92% |       19414     30.08%    100.00%
system.ruby.L1Cache_Controller.deallocTBE::total        64532                      
system.ruby.L1Cache_Controller.deallocfwdfrom_in |      714597     23.63%     23.63% |      784520     25.94%     49.57% |      740522     24.48%     74.05% |      784822     25.95%    100.00%
system.ruby.L1Cache_Controller.deallocfwdfrom_in::total      3024461                      
system.ruby.L1Cache_Controller.externalloadSrespfrom_in |      585047     24.08%     24.08% |      630188     25.93%     50.01% |      583165     24.00%     74.01% |      631502     25.99%    100.00%
system.ruby.L1Cache_Controller.externalloadSrespfrom_in::total      2429902                      
system.ruby.L1Cache_Controller.externalstoreMrespfrom_in |      265198     23.04%     23.04% |      297034     25.80%     48.84% |      289309     25.13%     73.97% |      299595     26.03%    100.00%
system.ruby.L1Cache_Controller.externalstoreMrespfrom_in::total      1151136                      
system.ruby.LD.hit_latency_hist_seqr::bucket_size            1                      
system.ruby.LD.hit_latency_hist_seqr::max_bucket            9                      
system.ruby.LD.hit_latency_hist_seqr::samples    383661754                      
system.ruby.LD.hit_latency_hist_seqr     |   383661754    100.00%    100.00% |           0      0.00%    100.00% |           0      0.00%    100.00% |           0      0.00%    100.00% |           0      0.00%    100.00% |           0      0.00%    100.00% |           0      0.00%    100.00% |           0      0.00%    100.00% |           0      0.00%    100.00% |           0      0.00%    100.00%
system.ruby.LD.hit_latency_hist_seqr::total    383661754                      
system.ruby.LD.latency_hist_seqr::bucket_size            1                      
system.ruby.LD.latency_hist_seqr::max_bucket            9                      
system.ruby.LD.latency_hist_seqr::samples    385658548                      
system.ruby.LD.latency_hist_seqr         |   385658548    100.00%    100.00% |           0      0.00%    100.00% |           0      0.00%    100.00% |           0      0.00%    100.00% |           0      0.00%    100.00% |           0      0.00%    100.00% |           0      0.00%    100.00% |           0      0.00%    100.00% |           0      0.00%    100.00% |           0      0.00%    100.00%
system.ruby.LD.latency_hist_seqr::total     385658548                      
system.ruby.LD.miss_latency_hist_seqr::bucket_size            1                      
system.ruby.LD.miss_latency_hist_seqr::max_bucket            9                      
system.ruby.LD.miss_latency_hist_seqr::samples      1996794                      
system.ruby.LD.miss_latency_hist_seqr    |     1996794    100.00%    100.00% |           0      0.00%    100.00% |           0      0.00%    100.00% |           0      0.00%    100.00% |           0      0.00%    100.00% |           0      0.00%    100.00% |           0      0.00%    100.00% |           0      0.00%    100.00% |           0      0.00%    100.00% |           0      0.00%    100.00%
system.ruby.LD.miss_latency_hist_seqr::total      1996794                      
system.ruby.Locked_RMW_Read.hit_latency_hist_seqr::bucket_size            1                      
system.ruby.Locked_RMW_Read.hit_latency_hist_seqr::max_bucket            9                      
system.ruby.Locked_RMW_Read.hit_latency_hist_seqr::samples      2088100                      
system.ruby.Locked_RMW_Read.hit_latency_hist_seqr |     2088100    100.00%    100.00% |           0      0.00%    100.00% |           0      0.00%    100.00% |           0      0.00%    100.00% |           0      0.00%    100.00% |           0      0.00%    100.00% |           0      0.00%    100.00% |           0      0.00%    100.00% |           0      0.00%    100.00% |           0      0.00%    100.00%
system.ruby.Locked_RMW_Read.hit_latency_hist_seqr::total      2088100                      
system.ruby.Locked_RMW_Read.latency_hist_seqr::bucket_size            1                      
system.ruby.Locked_RMW_Read.latency_hist_seqr::max_bucket            9                      
system.ruby.Locked_RMW_Read.latency_hist_seqr::samples      2189759                      
system.ruby.Locked_RMW_Read.latency_hist_seqr |     2189759    100.00%    100.00% |           0      0.00%    100.00% |           0      0.00%    100.00% |           0      0.00%    100.00% |           0      0.00%    100.00% |           0      0.00%    100.00% |           0      0.00%    100.00% |           0      0.00%    100.00% |           0      0.00%    100.00% |           0      0.00%    100.00%
system.ruby.Locked_RMW_Read.latency_hist_seqr::total      2189759                      
system.ruby.Locked_RMW_Read.miss_latency_hist_seqr::bucket_size            1                      
system.ruby.Locked_RMW_Read.miss_latency_hist_seqr::max_bucket            9                      
system.ruby.Locked_RMW_Read.miss_latency_hist_seqr::samples       101659                      
system.ruby.Locked_RMW_Read.miss_latency_hist_seqr |      101659    100.00%    100.00% |           0      0.00%    100.00% |           0      0.00%    100.00% |           0      0.00%    100.00% |           0      0.00%    100.00% |           0      0.00%    100.00% |           0      0.00%    100.00% |           0      0.00%    100.00% |           0      0.00%    100.00% |           0      0.00%    100.00%
system.ruby.Locked_RMW_Read.miss_latency_hist_seqr::total       101659                      
system.ruby.Locked_RMW_Write.hit_latency_hist_seqr::bucket_size            1                      
system.ruby.Locked_RMW_Write.hit_latency_hist_seqr::max_bucket            9                      
system.ruby.Locked_RMW_Write.hit_latency_hist_seqr::samples      2189759                      
system.ruby.Locked_RMW_Write.hit_latency_hist_seqr |     2189759    100.00%    100.00% |           0      0.00%    100.00% |           0      0.00%    100.00% |           0      0.00%    100.00% |           0      0.00%    100.00% |           0      0.00%    100.00% |           0      0.00%    100.00% |           0      0.00%    100.00% |           0      0.00%    100.00% |           0      0.00%    100.00%
system.ruby.Locked_RMW_Write.hit_latency_hist_seqr::total      2189759                      
system.ruby.Locked_RMW_Write.latency_hist_seqr::bucket_size            1                      
system.ruby.Locked_RMW_Write.latency_hist_seqr::max_bucket            9                      
system.ruby.Locked_RMW_Write.latency_hist_seqr::samples      2189759                      
system.ruby.Locked_RMW_Write.latency_hist_seqr |     2189759    100.00%    100.00% |           0      0.00%    100.00% |           0      0.00%    100.00% |           0      0.00%    100.00% |           0      0.00%    100.00% |           0      0.00%    100.00% |           0      0.00%    100.00% |           0      0.00%    100.00% |           0      0.00%    100.00% |           0      0.00%    100.00%
system.ruby.Locked_RMW_Write.latency_hist_seqr::total      2189759                      
system.ruby.RMW_Read.hit_latency_hist_seqr::bucket_size            1                      
system.ruby.RMW_Read.hit_latency_hist_seqr::max_bucket            9                      
system.ruby.RMW_Read.hit_latency_hist_seqr::samples      3213376                      
system.ruby.RMW_Read.hit_latency_hist_seqr |     3213376    100.00%    100.00% |           0      0.00%    100.00% |           0      0.00%    100.00% |           0      0.00%    100.00% |           0      0.00%    100.00% |           0      0.00%    100.00% |           0      0.00%    100.00% |           0      0.00%    100.00% |           0      0.00%    100.00% |           0      0.00%    100.00%
system.ruby.RMW_Read.hit_latency_hist_seqr::total      3213376                      
system.ruby.RMW_Read.latency_hist_seqr::bucket_size            1                      
system.ruby.RMW_Read.latency_hist_seqr::max_bucket            9                      
system.ruby.RMW_Read.latency_hist_seqr::samples      3231226                      
system.ruby.RMW_Read.latency_hist_seqr   |     3231226    100.00%    100.00% |           0      0.00%    100.00% |           0      0.00%    100.00% |           0      0.00%    100.00% |           0      0.00%    100.00% |           0      0.00%    100.00% |           0      0.00%    100.00% |           0      0.00%    100.00% |           0      0.00%    100.00% |           0      0.00%    100.00%
system.ruby.RMW_Read.latency_hist_seqr::total      3231226                      
system.ruby.RMW_Read.miss_latency_hist_seqr::bucket_size            1                      
system.ruby.RMW_Read.miss_latency_hist_seqr::max_bucket            9                      
system.ruby.RMW_Read.miss_latency_hist_seqr::samples        17850                      
system.ruby.RMW_Read.miss_latency_hist_seqr |       17850    100.00%    100.00% |           0      0.00%    100.00% |           0      0.00%    100.00% |           0      0.00%    100.00% |           0      0.00%    100.00% |           0      0.00%    100.00% |           0      0.00%    100.00% |           0      0.00%    100.00% |           0      0.00%    100.00% |           0      0.00%    100.00%
system.ruby.RMW_Read.miss_latency_hist_seqr::total        17850                      
system.ruby.ST.hit_latency_hist_seqr::bucket_size            1                      
system.ruby.ST.hit_latency_hist_seqr::max_bucket            9                      
system.ruby.ST.hit_latency_hist_seqr::samples     51226574                      
system.ruby.ST.hit_latency_hist_seqr     |    51226574    100.00%    100.00% |           0      0.00%    100.00% |           0      0.00%    100.00% |           0      0.00%    100.00% |           0      0.00%    100.00% |           0      0.00%    100.00% |           0      0.00%    100.00% |           0      0.00%    100.00% |           0      0.00%    100.00% |           0      0.00%    100.00%
system.ruby.ST.hit_latency_hist_seqr::total     51226574                      
system.ruby.ST.latency_hist_seqr::bucket_size            1                      
system.ruby.ST.latency_hist_seqr::max_bucket            9                      
system.ruby.ST.latency_hist_seqr::samples     52258201                      
system.ruby.ST.latency_hist_seqr         |    52258201    100.00%    100.00% |           0      0.00%    100.00% |           0      0.00%    100.00% |           0      0.00%    100.00% |           0      0.00%    100.00% |           0      0.00%    100.00% |           0      0.00%    100.00% |           0      0.00%    100.00% |           0      0.00%    100.00% |           0      0.00%    100.00%
system.ruby.ST.latency_hist_seqr::total      52258201                      
system.ruby.ST.miss_latency_hist_seqr::bucket_size            1                      
system.ruby.ST.miss_latency_hist_seqr::max_bucket            9                      
system.ruby.ST.miss_latency_hist_seqr::samples      1031627                      
system.ruby.ST.miss_latency_hist_seqr    |     1031627    100.00%    100.00% |           0      0.00%    100.00% |           0      0.00%    100.00% |           0      0.00%    100.00% |           0      0.00%    100.00% |           0      0.00%    100.00% |           0      0.00%    100.00% |           0      0.00%    100.00% |           0      0.00%    100.00% |           0      0.00%    100.00%
system.ruby.ST.miss_latency_hist_seqr::total      1031627                      
system.ruby.dir_cntrl0.fwdFrom.avg_buf_msgs     0.003383                       # Average number of messages in buffer
system.ruby.dir_cntrl0.fwdFrom.avg_stall_time  2999.988710                       # Average number of cycles messages are stalled in this MB
system.ruby.dir_cntrl0.reqTo.avg_buf_msgs     0.001286                       # Average number of messages in buffer
system.ruby.dir_cntrl0.reqTo.avg_stall_time  5109.813587                       # Average number of cycles messages are stalled in this MB
system.ruby.dir_cntrl0.requestToMemory.avg_buf_msgs     0.000834                       # Average number of messages in buffer
system.ruby.dir_cntrl0.requestToMemory.avg_stall_time   499.999833                       # Average number of cycles messages are stalled in this MB
system.ruby.dir_cntrl0.respFrom.avg_buf_msgs     0.003824                       # Average number of messages in buffer
system.ruby.dir_cntrl0.respFrom.avg_stall_time  3001.873671                       # Average number of cycles messages are stalled in this MB
system.ruby.dir_cntrl0.respTo.avg_buf_msgs     0.000035                       # Average number of messages in buffer
system.ruby.dir_cntrl0.respTo.avg_stall_time  5877.136636                       # Average number of cycles messages are stalled in this MB
system.ruby.dir_cntrl0.responseFromMemory.avg_buf_msgs     0.000835                       # Average number of messages in buffer
system.ruby.dir_cntrl0.responseFromMemory.avg_stall_time   499.999772                       # Average number of cycles messages are stalled in this MB
system.ruby.dir_cntrl1.fwdFrom.avg_buf_msgs     0.003440                       # Average number of messages in buffer
system.ruby.dir_cntrl1.fwdFrom.avg_stall_time  2999.979337                       # Average number of cycles messages are stalled in this MB
system.ruby.dir_cntrl1.reqTo.avg_buf_msgs     0.001350                       # Average number of messages in buffer
system.ruby.dir_cntrl1.reqTo.avg_stall_time  4986.565699                       # Average number of cycles messages are stalled in this MB
system.ruby.dir_cntrl1.requestToMemory.avg_buf_msgs     0.000841                       # Average number of messages in buffer
system.ruby.dir_cntrl1.requestToMemory.avg_stall_time   499.999997                       # Average number of cycles messages are stalled in this MB
system.ruby.dir_cntrl1.respFrom.avg_buf_msgs     0.003873                       # Average number of messages in buffer
system.ruby.dir_cntrl1.respFrom.avg_stall_time  3002.151869                       # Average number of cycles messages are stalled in this MB
system.ruby.dir_cntrl1.respTo.avg_buf_msgs     0.000036                       # Average number of messages in buffer
system.ruby.dir_cntrl1.respTo.avg_stall_time  6058.003578                       # Average number of cycles messages are stalled in this MB
system.ruby.dir_cntrl1.responseFromMemory.avg_buf_msgs     0.000842                       # Average number of messages in buffer
system.ruby.dir_cntrl1.responseFromMemory.avg_stall_time   499.999935                       # Average number of cycles messages are stalled in this MB
system.ruby.dir_cntrl2.fwdFrom.avg_buf_msgs     0.003397                       # Average number of messages in buffer
system.ruby.dir_cntrl2.fwdFrom.avg_stall_time  2999.969404                       # Average number of cycles messages are stalled in this MB
system.ruby.dir_cntrl2.reqTo.avg_buf_msgs     0.001268                       # Average number of messages in buffer
system.ruby.dir_cntrl2.reqTo.avg_stall_time  5065.207349                       # Average number of cycles messages are stalled in this MB
system.ruby.dir_cntrl2.requestToMemory.avg_buf_msgs     0.000834                       # Average number of messages in buffer
system.ruby.dir_cntrl2.requestToMemory.avg_stall_time   499.999910                       # Average number of cycles messages are stalled in this MB
system.ruby.dir_cntrl2.respFrom.avg_buf_msgs     0.003885                       # Average number of messages in buffer
system.ruby.dir_cntrl2.respFrom.avg_stall_time  3003.513969                       # Average number of cycles messages are stalled in this MB
system.ruby.dir_cntrl2.respTo.avg_buf_msgs     0.000033                       # Average number of messages in buffer
system.ruby.dir_cntrl2.respTo.avg_stall_time  6044.125461                       # Average number of cycles messages are stalled in this MB
system.ruby.dir_cntrl2.responseFromMemory.avg_buf_msgs     0.000836                       # Average number of messages in buffer
system.ruby.dir_cntrl2.responseFromMemory.avg_stall_time   499.999848                       # Average number of cycles messages are stalled in this MB
system.ruby.dir_cntrl3.fwdFrom.avg_buf_msgs     0.003298                       # Average number of messages in buffer
system.ruby.dir_cntrl3.fwdFrom.avg_stall_time  2999.970179                       # Average number of cycles messages are stalled in this MB
system.ruby.dir_cntrl3.reqTo.avg_buf_msgs     0.001240                       # Average number of messages in buffer
system.ruby.dir_cntrl3.reqTo.avg_stall_time  5013.909135                       # Average number of cycles messages are stalled in this MB
system.ruby.dir_cntrl3.requestToMemory.avg_buf_msgs     0.000814                       # Average number of messages in buffer
system.ruby.dir_cntrl3.requestToMemory.avg_stall_time   499.999997                       # Average number of cycles messages are stalled in this MB
system.ruby.dir_cntrl3.respFrom.avg_buf_msgs     0.003775                       # Average number of messages in buffer
system.ruby.dir_cntrl3.respFrom.avg_stall_time  3003.909363                       # Average number of cycles messages are stalled in this MB
system.ruby.dir_cntrl3.respTo.avg_buf_msgs     0.000033                       # Average number of messages in buffer
system.ruby.dir_cntrl3.respTo.avg_stall_time  6571.333854                       # Average number of cycles messages are stalled in this MB
system.ruby.dir_cntrl3.responseFromMemory.avg_buf_msgs     0.000816                       # Average number of messages in buffer
system.ruby.dir_cntrl3.responseFromMemory.avg_stall_time   499.999935                       # Average number of cycles messages are stalled in this MB
system.ruby.dma_cntrl0.cache.demand_accesses            0                       # Number of cache demand accesses
system.ruby.dma_cntrl0.cache.demand_hits            0                       # Number of cache demand hits
system.ruby.dma_cntrl0.cache.demand_misses            0                       # Number of cache demand misses
system.ruby.dma_cntrl0.fully_busy_cycles         2748                       # cycles for which number of transistions == max transitions
system.ruby.dma_cntrl0.fwdFrom.avg_buf_msgs     0.000002                       # Average number of messages in buffer
system.ruby.dma_cntrl0.fwdFrom.avg_stall_time  1037.235064                       # Average number of cycles messages are stalled in this MB
system.ruby.dma_cntrl0.mandatoryQueue.avg_buf_msgs     0.000078                       # Average number of messages in buffer
system.ruby.dma_cntrl0.mandatoryQueue.avg_stall_time  2865.383204                       # Average number of cycles messages are stalled in this MB
system.ruby.dma_cntrl0.reqTo.avg_buf_msgs     0.000032                       # Average number of messages in buffer
system.ruby.dma_cntrl0.reqTo.avg_stall_time    49.485353                       # Average number of cycles messages are stalled in this MB
system.ruby.dma_cntrl0.respFrom.avg_buf_msgs     0.000003                       # Average number of messages in buffer
system.ruby.dma_cntrl0.respFrom.avg_stall_time 20667.438820                       # Average number of cycles messages are stalled in this MB
system.ruby.dma_cntrl0.respTo.avg_buf_msgs     0.000000                       # Average number of messages in buffer
system.ruby.dma_cntrl0.respTo.avg_stall_time    49.318859                       # Average number of cycles messages are stalled in this MB
system.ruby.hit_latency_hist_seqr::bucket_size            1                      
system.ruby.hit_latency_hist_seqr::max_bucket            9                      
system.ruby.hit_latency_hist_seqr::samples   2441330344                      
system.ruby.hit_latency_hist_seqr        |  2441330344    100.00%    100.00% |           0      0.00%    100.00% |           0      0.00%    100.00% |           0      0.00%    100.00% |           0      0.00%    100.00% |           0      0.00%    100.00% |           0      0.00%    100.00% |           0      0.00%    100.00% |           0      0.00%    100.00% |           0      0.00%    100.00%
system.ruby.hit_latency_hist_seqr::total   2441330344                      
system.ruby.io_controller.cache.demand_accesses            0                       # Number of cache demand accesses
system.ruby.io_controller.cache.demand_hits            0                       # Number of cache demand hits
system.ruby.io_controller.cache.demand_misses            0                       # Number of cache demand misses
system.ruby.l1_cntrl0.cache.demand_accesses            0                       # Number of cache demand accesses
system.ruby.l1_cntrl0.cache.demand_hits             0                       # Number of cache demand hits
system.ruby.l1_cntrl0.cache.demand_misses            0                       # Number of cache demand misses
system.ruby.l1_cntrl0.fully_busy_cycles            59                       # cycles for which number of transistions == max transitions
system.ruby.l1_cntrl0.fwdFrom.avg_buf_msgs    14.242593                       # Average number of messages in buffer
system.ruby.l1_cntrl0.fwdFrom.avg_stall_time  6468.398423                       # Average number of cycles messages are stalled in this MB
system.ruby.l1_cntrl0.mandatoryQueue.avg_buf_msgs     0.448047                       # Average number of messages in buffer
system.ruby.l1_cntrl0.mandatoryQueue.avg_stall_time  1137.575424                       # Average number of cycles messages are stalled in this MB
system.ruby.l1_cntrl0.reqTo.avg_buf_msgs     0.001120                       # Average number of messages in buffer
system.ruby.l1_cntrl0.reqTo.avg_stall_time   500.001941                       # Average number of cycles messages are stalled in this MB
system.ruby.l1_cntrl0.respFrom.avg_buf_msgs     0.000635                       # Average number of messages in buffer
system.ruby.l1_cntrl0.respFrom.avg_stall_time 16505.778217                       # Average number of cycles messages are stalled in this MB
system.ruby.l1_cntrl0.respTo.avg_buf_msgs     0.000095                       # Average number of messages in buffer
system.ruby.l1_cntrl0.respTo.avg_stall_time   639.195075                       # Average number of cycles messages are stalled in this MB
system.ruby.l1_cntrl1.cache.demand_accesses            0                       # Number of cache demand accesses
system.ruby.l1_cntrl1.cache.demand_hits             0                       # Number of cache demand hits
system.ruby.l1_cntrl1.cache.demand_misses            0                       # Number of cache demand misses
system.ruby.l1_cntrl1.fully_busy_cycles            51                       # cycles for which number of transistions == max transitions
system.ruby.l1_cntrl1.fwdFrom.avg_buf_msgs    26.912947                       # Average number of messages in buffer
system.ruby.l1_cntrl1.fwdFrom.avg_stall_time  6532.504713                       # Average number of cycles messages are stalled in this MB
system.ruby.l1_cntrl1.mandatoryQueue.avg_buf_msgs     0.470725                       # Average number of messages in buffer
system.ruby.l1_cntrl1.mandatoryQueue.avg_stall_time  1266.314519                       # Average number of cycles messages are stalled in this MB
system.ruby.l1_cntrl1.reqTo.avg_buf_msgs     0.001228                       # Average number of messages in buffer
system.ruby.l1_cntrl1.reqTo.avg_stall_time   500.001370                       # Average number of cycles messages are stalled in this MB
system.ruby.l1_cntrl1.respFrom.avg_buf_msgs     0.000690                       # Average number of messages in buffer
system.ruby.l1_cntrl1.respFrom.avg_stall_time 16533.372402                       # Average number of cycles messages are stalled in this MB
system.ruby.l1_cntrl1.respTo.avg_buf_msgs     0.000081                       # Average number of messages in buffer
system.ruby.l1_cntrl1.respTo.avg_stall_time   527.999772                       # Average number of cycles messages are stalled in this MB
system.ruby.l1_cntrl2.cache.demand_accesses            0                       # Number of cache demand accesses
system.ruby.l1_cntrl2.cache.demand_hits             0                       # Number of cache demand hits
system.ruby.l1_cntrl2.cache.demand_misses            0                       # Number of cache demand misses
system.ruby.l1_cntrl2.fully_busy_cycles            52                       # cycles for which number of transistions == max transitions
system.ruby.l1_cntrl2.fwdFrom.avg_buf_msgs     6.021776                       # Average number of messages in buffer
system.ruby.l1_cntrl2.fwdFrom.avg_stall_time  6533.593969                       # Average number of cycles messages are stalled in this MB
system.ruby.l1_cntrl2.mandatoryQueue.avg_buf_msgs     0.451804                       # Average number of messages in buffer
system.ruby.l1_cntrl2.mandatoryQueue.avg_stall_time  1224.691313                       # Average number of cycles messages are stalled in this MB
system.ruby.l1_cntrl2.reqTo.avg_buf_msgs     0.001155                       # Average number of messages in buffer
system.ruby.l1_cntrl2.reqTo.avg_stall_time   500.002247                       # Average number of cycles messages are stalled in this MB
system.ruby.l1_cntrl2.respFrom.avg_buf_msgs     0.000649                       # Average number of messages in buffer
system.ruby.l1_cntrl2.respFrom.avg_stall_time 16452.116529                       # Average number of cycles messages are stalled in this MB
system.ruby.l1_cntrl2.respTo.avg_buf_msgs     0.000082                       # Average number of messages in buffer
system.ruby.l1_cntrl2.respTo.avg_stall_time   541.523215                       # Average number of cycles messages are stalled in this MB
system.ruby.l1_cntrl3.cache.demand_accesses            0                       # Number of cache demand accesses
system.ruby.l1_cntrl3.cache.demand_hits             0                       # Number of cache demand hits
system.ruby.l1_cntrl3.cache.demand_misses            0                       # Number of cache demand misses
system.ruby.l1_cntrl3.fully_busy_cycles            74                       # cycles for which number of transistions == max transitions
system.ruby.l1_cntrl3.fwdFrom.avg_buf_msgs    17.216412                       # Average number of messages in buffer
system.ruby.l1_cntrl3.fwdFrom.avg_stall_time  6546.145805                       # Average number of cycles messages are stalled in this MB
system.ruby.l1_cntrl3.mandatoryQueue.avg_buf_msgs     0.472893                       # Average number of messages in buffer
system.ruby.l1_cntrl3.mandatoryQueue.avg_stall_time  1246.316516                       # Average number of cycles messages are stalled in this MB
system.ruby.l1_cntrl3.reqTo.avg_buf_msgs     0.001223                       # Average number of messages in buffer
system.ruby.l1_cntrl3.reqTo.avg_stall_time   500.001403                       # Average number of cycles messages are stalled in this MB
system.ruby.l1_cntrl3.respFrom.avg_buf_msgs     0.000689                       # Average number of messages in buffer
system.ruby.l1_cntrl3.respFrom.avg_stall_time 16511.341338                       # Average number of cycles messages are stalled in this MB
system.ruby.l1_cntrl3.respTo.avg_buf_msgs     0.000116                       # Average number of messages in buffer
system.ruby.l1_cntrl3.respTo.avg_stall_time   522.608900                       # Average number of cycles messages are stalled in this MB
system.ruby.latency_hist_seqr::bucket_size            1                      
system.ruby.latency_hist_seqr::max_bucket            9                      
system.ruby.latency_hist_seqr::samples     2444911382                      
system.ruby.latency_hist_seqr            |  2444911382    100.00%    100.00% |           0      0.00%    100.00% |           0      0.00%    100.00% |           0      0.00%    100.00% |           0      0.00%    100.00% |           0      0.00%    100.00% |           0      0.00%    100.00% |           0      0.00%    100.00% |           0      0.00%    100.00% |           0      0.00%    100.00%
system.ruby.latency_hist_seqr::total       2444911382                      
system.ruby.miss_latency_hist_seqr::bucket_size            1                      
system.ruby.miss_latency_hist_seqr::max_bucket            9                      
system.ruby.miss_latency_hist_seqr::samples      3581038                      
system.ruby.miss_latency_hist_seqr       |     3581038    100.00%    100.00% |           0      0.00%    100.00% |           0      0.00%    100.00% |           0      0.00%    100.00% |           0      0.00%    100.00% |           0      0.00%    100.00% |           0      0.00%    100.00% |           0      0.00%    100.00% |           0      0.00%    100.00% |           0      0.00%    100.00%
system.ruby.miss_latency_hist_seqr::total      3581038                      
system.ruby.network.average_flit_latency    16.582213                      
system.ruby.network.average_flit_network_latency    12.348570                      
system.ruby.network.average_flit_queueing_latency     4.233642                      
system.ruby.network.average_flit_vnet_latency |   14.998485                       |    5.031718                       |    9.876732                      
system.ruby.network.average_flit_vqueue_latency |    5.794901                       |    6.000011                       |    1.003674                      
system.ruby.network.average_hops             1.008917                      
system.ruby.network.average_packet_latency    15.496669                      
system.ruby.network.average_packet_network_latency    12.020545                      
system.ruby.network.average_packet_queueing_latency     3.476123                      
system.ruby.network.average_packet_vnet_latency |   24.108936                       |    5.031718                       |    8.196629                      
system.ruby.network.average_packet_vqueue_latency |    5.614500                       |    6.000011                       |    1.005863                      
system.ruby.network.avg_link_utilization     0.070528                      
system.ruby.network.avg_vc_load          |    0.030112     42.70%     42.70% |    0.003618      5.13%     47.82% |    0.003356      4.76%     52.58% |    0.003385      4.80%     57.38% |    0.005091      7.22%     64.60% |    0.000571      0.81%     65.41% |    0.000565      0.80%     66.21% |    0.000565      0.80%     67.01% |    0.017250     24.46%     91.47% |    0.002142      3.04%     94.51% |    0.001949      2.76%     97.27% |    0.001926      2.73%    100.00%
system.ruby.network.avg_vc_load::total       0.070528                      
system.ruby.network.ext_in_link_utilization     32141857                      
system.ruby.network.ext_out_link_utilization     32141857                      
system.ruby.network.flit_network_latency |   276576469                       |    15575063                       |   104754455                      
system.ruby.network.flit_queueing_latency |   106859672                       |    18572297                       |    10645148                      
system.ruby.network.flits_injected       |    18440294     57.37%     57.37% |     3095377      9.63%     67.00% |    10606186     33.00%    100.00%
system.ruby.network.flits_injected::total     32141857                      
system.ruby.network.flits_received       |    18440294     57.37%     57.37% |     3095377      9.63%     67.00% |    10606186     33.00%    100.00%
system.ruby.network.flits_received::total     32141857                      
system.ruby.network.int_link_utilization     32428453                      
system.ruby.network.packet_network_latency |    92628027                       |    15575063                       |    53183418                      
system.ruby.network.packet_queueing_latency |    21571256                       |    18572297                       |     6526492                      
system.ruby.network.packets_injected     |     3842062     28.62%     28.62% |     3095377     23.06%     51.67% |     6488450     48.33%    100.00%
system.ruby.network.packets_injected::total     13425889                      
system.ruby.network.packets_received     |     3842062     28.62%     28.62% |     3095377     23.06%     51.67% |     6488450     48.33%    100.00%
system.ruby.network.packets_received::total     13425889                      
system.ruby.network.routers0.buffer_reads     15858629                      
system.ruby.network.routers0.buffer_writes     15858629                      
system.ruby.network.routers0.crossbar_activity     15858629                      
system.ruby.network.routers0.sw_input_arbiter_activity     15897088                      
system.ruby.network.routers0.sw_output_arbiter_activity     15858629                      
system.ruby.network.routers1.buffer_reads     16424199                      
system.ruby.network.routers1.buffer_writes     16424199                      
system.ruby.network.routers1.crossbar_activity     16424199                      
system.ruby.network.routers1.sw_input_arbiter_activity     16448604                      
system.ruby.network.routers1.sw_output_arbiter_activity     16424199                      
system.ruby.network.routers2.buffer_reads     15965302                      
system.ruby.network.routers2.buffer_writes     15965302                      
system.ruby.network.routers2.crossbar_activity     15965302                      
system.ruby.network.routers2.sw_input_arbiter_activity     15991768                      
system.ruby.network.routers2.sw_output_arbiter_activity     15965302                      
system.ruby.network.routers3.buffer_reads     16322180                      
system.ruby.network.routers3.buffer_writes     16322180                      
system.ruby.network.routers3.crossbar_activity     16322180                      
system.ruby.network.routers3.sw_input_arbiter_activity     16348585                      
system.ruby.network.routers3.sw_output_arbiter_activity     16322180                      
system.ruby.outstanding_req_hist_seqr::bucket_size            1                      
system.ruby.outstanding_req_hist_seqr::max_bucket            9                      
system.ruby.outstanding_req_hist_seqr::samples   2444911383                      
system.ruby.outstanding_req_hist_seqr::mean     1.001939                      
system.ruby.outstanding_req_hist_seqr::gmean     1.001345                      
system.ruby.outstanding_req_hist_seqr::stdev     0.043989                      
system.ruby.outstanding_req_hist_seqr    |           0      0.00%      0.00% |  2440171202     99.81%     99.81% |     4740181      0.19%    100.00% |           0      0.00%    100.00% |           0      0.00%    100.00% |           0      0.00%    100.00% |           0      0.00%    100.00% |           0      0.00%    100.00% |           0      0.00%    100.00% |           0      0.00%    100.00%
system.ruby.outstanding_req_hist_seqr::total   2444911383                      
system.switch_cpus0.Branches                 45869972                       # Number of branches fetched
system.switch_cpus0.committedInsts          338954485                       # Number of instructions committed
system.switch_cpus0.committedOps            623009132                       # Number of ops (including micro ops) committed
system.switch_cpus0.dtb.rdAccesses           94884397                       # TLB accesses on read requests
system.switch_cpus0.dtb.rdMisses                52163                       # TLB misses on read requests
system.switch_cpus0.dtb.wrAccesses           13212073                       # TLB accesses on write requests
system.switch_cpus0.dtb.wrMisses                15689                       # TLB misses on write requests
system.switch_cpus0.idle_fraction            0.065257                       # Percentage of idle cycles
system.switch_cpus0.itb.rdAccesses                  0                       # TLB accesses on read requests
system.switch_cpus0.itb.rdMisses                    0                       # TLB misses on read requests
system.switch_cpus0.itb.wrAccesses          486719956                       # TLB accesses on write requests
system.switch_cpus0.itb.wrMisses                 4239                       # TLB misses on write requests
system.switch_cpus0.kern.inst.arm                   0                       # number of arm instructions executed
system.switch_cpus0.kern.inst.quiesce               0                       # number of quiesce instructions executed
system.switch_cpus0.not_idle_fraction        0.934743                       # Percentage of non-idle cycles
system.switch_cpus0.numCycles              1371229564                       # number of cpu cycles simulated
system.switch_cpus0.numWorkItemsCompleted            0                       # number of work items this cpu completed
system.switch_cpus0.numWorkItemsStarted             0                       # number of work items this cpu started
system.switch_cpus0.num_busy_cycles      1281747007.556565                       # Number of busy cycles
system.switch_cpus0.num_cc_register_reads    255892119                       # number of times the CC registers were read
system.switch_cpus0.num_cc_register_writes    144669488                       # number of times the CC registers were written
system.switch_cpus0.num_conditional_control_insts     42750734                       # number of instructions that are conditional controls
system.switch_cpus0.num_fp_alu_accesses     281383848                       # Number of float alu accesses
system.switch_cpus0.num_fp_insts            281383848                       # number of float instructions
system.switch_cpus0.num_fp_register_reads    338941993                       # number of times the floating registers were read
system.switch_cpus0.num_fp_register_writes    266620903                       # number of times the floating registers were written
system.switch_cpus0.num_func_calls            1216291                       # number of times a function call or return occured
system.switch_cpus0.num_idle_cycles      89482556.443435                       # Number of idle cycles
system.switch_cpus0.num_int_alu_accesses    412035301                       # Number of integer alu accesses
system.switch_cpus0.num_int_insts           412035301                       # number of integer instructions
system.switch_cpus0.num_int_register_reads    797205173                       # number of times the integer registers were read
system.switch_cpus0.num_int_register_writes    286438566                       # number of times the integer registers were written
system.switch_cpus0.num_load_insts           93693188                       # Number of load instructions
system.switch_cpus0.num_mem_refs            106875713                       # number of memory refs
system.switch_cpus0.num_store_insts          13182525                       # Number of store instructions
system.switch_cpus0.num_vec_alu_accesses            0                       # Number of vector alu accesses
system.switch_cpus0.num_vec_insts                   0                       # number of vector instructions
system.switch_cpus0.num_vec_register_reads            0                       # number of times the vector registers were read
system.switch_cpus0.num_vec_register_writes            0                       # number of times the vector registers were written
system.switch_cpus0.op_class::No_OpClass      1279872      0.21%      0.21% # Class of executed instruction
system.switch_cpus0.op_class::IntAlu        332801654     53.42%     53.62% # Class of executed instruction
system.switch_cpus0.op_class::IntMult         1206989      0.19%     53.82% # Class of executed instruction
system.switch_cpus0.op_class::IntDiv            40103      0.01%     53.82% # Class of executed instruction
system.switch_cpus0.op_class::FloatAdd       83948985     13.47%     67.30% # Class of executed instruction
system.switch_cpus0.op_class::FloatCmp              0      0.00%     67.30% # Class of executed instruction
system.switch_cpus0.op_class::FloatCvt            400      0.00%     67.30% # Class of executed instruction
system.switch_cpus0.op_class::FloatMult             0      0.00%     67.30% # Class of executed instruction
system.switch_cpus0.op_class::FloatMultAcc            0      0.00%     67.30% # Class of executed instruction
system.switch_cpus0.op_class::FloatDiv              0      0.00%     67.30% # Class of executed instruction
system.switch_cpus0.op_class::FloatMisc             0      0.00%     67.30% # Class of executed instruction
system.switch_cpus0.op_class::FloatSqrt             0      0.00%     67.30% # Class of executed instruction
system.switch_cpus0.op_class::SimdAdd             196      0.00%     67.30% # Class of executed instruction
system.switch_cpus0.op_class::SimdAddAcc            0      0.00%     67.30% # Class of executed instruction
system.switch_cpus0.op_class::SimdAlu         1259052      0.20%     67.50% # Class of executed instruction
system.switch_cpus0.op_class::SimdCmp               0      0.00%     67.50% # Class of executed instruction
system.switch_cpus0.op_class::SimdCvt             392      0.00%     67.50% # Class of executed instruction
system.switch_cpus0.op_class::SimdMisc         109405      0.02%     67.52% # Class of executed instruction
system.switch_cpus0.op_class::SimdMult              0      0.00%     67.52% # Class of executed instruction
system.switch_cpus0.op_class::SimdMultAcc            0      0.00%     67.52% # Class of executed instruction
system.switch_cpus0.op_class::SimdShift            78      0.00%     67.52% # Class of executed instruction
system.switch_cpus0.op_class::SimdShiftAcc            0      0.00%     67.52% # Class of executed instruction
system.switch_cpus0.op_class::SimdDiv               0      0.00%     67.52% # Class of executed instruction
system.switch_cpus0.op_class::SimdSqrt              0      0.00%     67.52% # Class of executed instruction
system.switch_cpus0.op_class::SimdFloatAdd     48747781      7.82%     75.34% # Class of executed instruction
system.switch_cpus0.op_class::SimdFloatAlu            0      0.00%     75.34% # Class of executed instruction
system.switch_cpus0.op_class::SimdFloatCmp            0      0.00%     75.34% # Class of executed instruction
system.switch_cpus0.op_class::SimdFloatCvt      8797763      1.41%     76.76% # Class of executed instruction
system.switch_cpus0.op_class::SimdFloatDiv      1300201      0.21%     76.96% # Class of executed instruction
system.switch_cpus0.op_class::SimdFloatMisc            0      0.00%     76.96% # Class of executed instruction
system.switch_cpus0.op_class::SimdFloatMult     36045018      5.79%     82.75% # Class of executed instruction
system.switch_cpus0.op_class::SimdFloatMultAcc            0      0.00%     82.75% # Class of executed instruction
system.switch_cpus0.op_class::SimdFloatSqrt       595538      0.10%     82.85% # Class of executed instruction
system.switch_cpus0.op_class::SimdReduceAdd            0      0.00%     82.85% # Class of executed instruction
system.switch_cpus0.op_class::SimdReduceAlu            0      0.00%     82.85% # Class of executed instruction
system.switch_cpus0.op_class::SimdReduceCmp            0      0.00%     82.85% # Class of executed instruction
system.switch_cpus0.op_class::SimdFloatReduceAdd            0      0.00%     82.85% # Class of executed instruction
system.switch_cpus0.op_class::SimdFloatReduceCmp            0      0.00%     82.85% # Class of executed instruction
system.switch_cpus0.op_class::SimdAes               0      0.00%     82.85% # Class of executed instruction
system.switch_cpus0.op_class::SimdAesMix            0      0.00%     82.85% # Class of executed instruction
system.switch_cpus0.op_class::SimdSha1Hash            0      0.00%     82.85% # Class of executed instruction
system.switch_cpus0.op_class::SimdSha1Hash2            0      0.00%     82.85% # Class of executed instruction
system.switch_cpus0.op_class::SimdSha256Hash            0      0.00%     82.85% # Class of executed instruction
system.switch_cpus0.op_class::SimdSha256Hash2            0      0.00%     82.85% # Class of executed instruction
system.switch_cpus0.op_class::SimdShaSigma2            0      0.00%     82.85% # Class of executed instruction
system.switch_cpus0.op_class::SimdShaSigma3            0      0.00%     82.85% # Class of executed instruction
system.switch_cpus0.op_class::SimdPredAlu            0      0.00%     82.85% # Class of executed instruction
system.switch_cpus0.op_class::MemRead        25719687      4.13%     86.97% # Class of executed instruction
system.switch_cpus0.op_class::MemWrite        7217939      1.16%     88.13% # Class of executed instruction
system.switch_cpus0.op_class::FloatMemRead     67973501     10.91%     99.04% # Class of executed instruction
system.switch_cpus0.op_class::FloatMemWrite      5964586      0.96%    100.00% # Class of executed instruction
system.switch_cpus0.op_class::IprAccess             0      0.00%    100.00% # Class of executed instruction
system.switch_cpus0.op_class::InstPrefetch            0      0.00%    100.00% # Class of executed instruction
system.switch_cpus0.op_class::total         623009140                       # Class of executed instruction
system.switch_cpus1.Branches                 48106838                       # Number of branches fetched
system.switch_cpus1.committedInsts          355287476                       # Number of instructions committed
system.switch_cpus1.committedOps            651913807                       # Number of ops (including micro ops) committed
system.switch_cpus1.dtb.rdAccesses           99679496                       # TLB accesses on read requests
system.switch_cpus1.dtb.rdMisses                58807                       # TLB misses on read requests
system.switch_cpus1.dtb.wrAccesses           14093437                       # TLB accesses on write requests
system.switch_cpus1.dtb.wrMisses                19682                       # TLB misses on write requests
system.switch_cpus1.idle_fraction            0.013589                       # Percentage of idle cycles
[...]
system.mem_ctrls1.llc.tags.avg_refs               nan                       # Average number of references to valid blocks.
system.mem_ctrls1.llc.tags.warmup_cycle  101693084141500                       # Cycle when the warmup percentage was hit.
system.mem_ctrls1.llc.tags.occ_blocks::.ruby.dir_cntrl1 42797.100652                       # Average occupied blocks per requestor
system.mem_ctrls1.llc.tags.occ_percent::.ruby.dir_cntrl1     0.163258                       # Average percentage of cache occupancy
system.mem_ctrls1.llc.tags.occ_percent::total     0.163258                       # Average percentage of cache occupancy
system.mem_ctrls1.llc.tags.occ_task_id_blocks::1024        48355                       # Occupied blocks per task id
system.mem_ctrls1.llc.tags.age_task_id_blocks_1024::0            4                       # Occupied blocks per task id
system.mem_ctrls1.llc.tags.age_task_id_blocks_1024::1           63                       # Occupied blocks per task id
system.mem_ctrls1.llc.tags.age_task_id_blocks_1024::2           86                       # Occupied blocks per task id
system.mem_ctrls1.llc.tags.age_task_id_blocks_1024::4        48202                       # Occupied blocks per task id
system.mem_ctrls1.llc.tags.occ_task_id_percent::1024     0.184460                       # Percentage of cache occupancy per task id
system.mem_ctrls1.llc.tags.tag_accesses      18501507                       # Number of tag accesses
system.mem_ctrls1.llc.tags.data_accesses      1153322                       # Number of data accesses
system.mem_ctrls1.llc.tags.power_state.pwrStateResidencyTicks::UNDEFINED 102378717103001                       # Cumulative time (in ticks) in various power states
system.mem_ctrls1.rank1.actEnergy            53235840                       # Energy for activate commands per rank (pJ)
system.mem_ctrls1.rank1.preEnergy            28287930                       # Energy for precharge commands per rank (pJ)
system.mem_ctrls1.rank1.readEnergy          174444480                       # Energy for read commands per rank (pJ)
system.mem_ctrls1.rank1.writeEnergy                 0                       # Energy for write commands per rank (pJ)
system.mem_ctrls1.rank1.refreshEnergy    54122739840.000008                       # Energy for refresh commands per rank (pJ)
system.mem_ctrls1.rank1.actBackEnergy     17021304660                       # Energy for active background per rank (pJ)
system.mem_ctrls1.rank1.preBackEnergy    248949212160                       # Energy for precharge background per rank (pJ)
system.mem_ctrls1.rank1.actPowerDownEnergy            0                       # Energy for active power-down per rank (pJ)
system.mem_ctrls1.rank1.prePowerDownEnergy            0                       # Energy for precharge power-down per rank (pJ)
system.mem_ctrls1.rank1.selfRefreshEnergy            0                       # Energy for self refresh per rank (pJ)
system.mem_ctrls1.rank1.totalEnergy      320349224910                       # Total energy per rank (pJ)
system.mem_ctrls1.rank1.averagePower       467.231319                       # Core power per rank (mW)
system.mem_ctrls1.rank1.totalIdleTime               0                       # Total Idle time Per DRAM Rank
system.mem_ctrls1.rank1.memoryStateTime::IDLE 647053162501                       # Time in different power states
system.mem_ctrls1.rank1.memoryStateTime::REF  22894560000                       # Time in different power states
system.mem_ctrls1.rank1.memoryStateTime::SREF            0                       # Time in different power states
system.mem_ctrls1.rank1.memoryStateTime::PRE_PDN            0                       # Time in different power states
system.mem_ctrls1.rank1.memoryStateTime::ACT  15685307000                       # Time in different power states
system.mem_ctrls1.rank1.memoryStateTime::ACT_PDN            0                       # Time in different power states
system.mem_ctrls1.rank0.actEnergy            53749920                       # Energy for activate commands per rank (pJ)
system.mem_ctrls1.rank0.preEnergy            28564965                       # Energy for precharge commands per rank (pJ)
system.mem_ctrls1.rank0.readEnergy          170810220                       # Energy for read commands per rank (pJ)
system.mem_ctrls1.rank0.writeEnergy                 0                       # Energy for write commands per rank (pJ)
system.mem_ctrls1.rank0.refreshEnergy    54122739840.000008                       # Energy for refresh commands per rank (pJ)
system.mem_ctrls1.rank0.actBackEnergy     16772997840                       # Energy for active background per rank (pJ)
system.mem_ctrls1.rank0.preBackEnergy    249158447520                       # Energy for precharge background per rank (pJ)
system.mem_ctrls1.rank0.actPowerDownEnergy            0                       # Energy for active power-down per rank (pJ)
system.mem_ctrls1.rank0.prePowerDownEnergy            0                       # Energy for precharge power-down per rank (pJ)
system.mem_ctrls1.rank0.selfRefreshEnergy            0                       # Energy for self refresh per rank (pJ)
system.mem_ctrls1.rank0.totalEnergy      320307310305                       # Total energy per rank (pJ)
system.mem_ctrls1.rank0.averagePower       467.170187                       # Core power per rank (mW)
system.mem_ctrls1.rank0.totalIdleTime               0                       # Total Idle time Per DRAM Rank
system.mem_ctrls1.rank0.memoryStateTime::IDLE 647599448753                       # Time in different power states
system.mem_ctrls1.rank0.memoryStateTime::REF  22894560000                       # Time in different power states
system.mem_ctrls1.rank0.memoryStateTime::SREF            0                       # Time in different power states
system.mem_ctrls1.rank0.memoryStateTime::PRE_PDN            0                       # Time in different power states
system.mem_ctrls1.rank0.memoryStateTime::ACT  15139020748                       # Time in different power states
system.mem_ctrls1.rank0.memoryStateTime::ACT_PDN            0                       # Time in different power states
system.mem_ctrls1.power_state.pwrStateResidencyTicks::UNDEFINED 102378717103001                       # Cumulative time (in ticks) in various power states
system.cpu_voltage_domain.voltage                   1                       # Voltage in Volts
system.iobus.trans_dist::ReadReq                  243                       # Transaction distribution
system.iobus.trans_dist::ReadResp                 243                       # Transaction distribution
system.iobus.trans_dist::WriteReq                3186                       # Transaction distribution
system.iobus.trans_dist::WriteResp               3186                       # Transaction distribution
system.iobus.pkt_count_system.pc.south_bridge.io_apic.int_master::system.ruby.l1_cntrl1.sequencer.pio-slave-port          110                       # Packet count per connected master and slave (bytes)
system.iobus.pkt_count_system.pc.south_bridge.io_apic.int_master::total          110                       # Packet count per connected master and slave (bytes)
system.iobus.pkt_count_system.ruby.l1_cntrl0.sequencer.mem-master-port::system.ruby.l1_cntrl0.sequencer.pio-slave-port         1462                       # Packet count per connected master and slave (bytes)
system.iobus.pkt_count_system.ruby.l1_cntrl0.sequencer.mem-master-port::system.ruby.l1_cntrl1.sequencer.pio-slave-port            6                       # Packet count per connected master and slave (bytes)
system.iobus.pkt_count_system.ruby.l1_cntrl0.sequencer.mem-master-port::system.ruby.l1_cntrl2.sequencer.pio-slave-port           10                       # Packet count per connected master and slave (bytes)
system.iobus.pkt_count_system.ruby.l1_cntrl0.sequencer.mem-master-port::system.ruby.l1_cntrl3.sequencer.pio-slave-port            2                       # Packet count per connected master and slave (bytes)
system.iobus.pkt_count_system.ruby.l1_cntrl0.sequencer.mem-master-port::total         1480                       # Packet count per connected master and slave (bytes)
system.iobus.pkt_count_system.ruby.l1_cntrl1.sequencer.mem-master-port::system.pc.south_bridge.ide.pio           36                       # Packet count per connected master and slave (bytes)
system.iobus.pkt_count_system.ruby.l1_cntrl1.sequencer.mem-master-port::system.pc.com_1.pio          412                       # Packet count per connected master and slave (bytes)
system.iobus.pkt_count_system.ruby.l1_cntrl1.sequencer.mem-master-port::system.ruby.l1_cntrl0.sequencer.pio-slave-port            4                       # Packet count per connected master and slave (bytes)
system.iobus.pkt_count_system.ruby.l1_cntrl1.sequencer.mem-master-port::system.ruby.l1_cntrl1.sequencer.pio-slave-port         1478                       # Packet count per connected master and slave (bytes)
system.iobus.pkt_count_system.ruby.l1_cntrl1.sequencer.mem-master-port::system.ruby.l1_cntrl2.sequencer.pio-slave-port           10                       # Packet count per connected master and slave (bytes)
system.iobus.pkt_count_system.ruby.l1_cntrl1.sequencer.mem-master-port::system.ruby.l1_cntrl3.sequencer.pio-slave-port           10                       # Packet count per connected master and slave (bytes)
system.iobus.pkt_count_system.ruby.l1_cntrl1.sequencer.mem-master-port::total         1950                       # Packet count per connected master and slave (bytes)
system.iobus.pkt_count_system.ruby.l1_cntrl2.sequencer.mem-master-port::system.pc.com_1.pio            4                       # Packet count per connected master and slave (bytes)
system.iobus.pkt_count_system.ruby.l1_cntrl2.sequencer.mem-master-port::system.ruby.l1_cntrl0.sequencer.pio-slave-port            6                       # Packet count per connected master and slave (bytes)
system.iobus.pkt_count_system.ruby.l1_cntrl2.sequencer.mem-master-port::system.ruby.l1_cntrl1.sequencer.pio-slave-port            8                       # Packet count per connected master and slave (bytes)
system.iobus.pkt_count_system.ruby.l1_cntrl2.sequencer.mem-master-port::system.ruby.l1_cntrl2.sequencer.pio-slave-port         1476                       # Packet count per connected master and slave (bytes)
system.iobus.pkt_count_system.ruby.l1_cntrl2.sequencer.mem-master-port::system.ruby.l1_cntrl3.sequencer.pio-slave-port           10                       # Packet count per connected master and slave (bytes)
system.iobus.pkt_count_system.ruby.l1_cntrl2.sequencer.mem-master-port::total         1504                       # Packet count per connected master and slave (bytes)
system.iobus.pkt_count_system.ruby.l1_cntrl3.sequencer.mem-master-port::system.pc.south_bridge.ide.pio          102                       # Packet count per connected master and slave (bytes)
system.iobus.pkt_count_system.ruby.l1_cntrl3.sequencer.mem-master-port::system.ruby.l1_cntrl0.sequencer.pio-slave-port           24                       # Packet count per connected master and slave (bytes)
system.iobus.pkt_count_system.ruby.l1_cntrl3.sequencer.mem-master-port::system.ruby.l1_cntrl1.sequencer.pio-slave-port           32                       # Packet count per connected master and slave (bytes)
system.iobus.pkt_count_system.ruby.l1_cntrl3.sequencer.mem-master-port::system.ruby.l1_cntrl2.sequencer.pio-slave-port           30                       # Packet count per connected master and slave (bytes)
system.iobus.pkt_count_system.ruby.l1_cntrl3.sequencer.mem-master-port::system.ruby.l1_cntrl3.sequencer.pio-slave-port         1626                       # Packet count per connected master and slave (bytes)
system.iobus.pkt_count_system.ruby.l1_cntrl3.sequencer.mem-master-port::total         1814                       # Packet count per connected master and slave (bytes)
system.iobus.pkt_count::total                    6858                       # Packet count per connected master and slave (bytes)
system.iobus.pkt_size_system.pc.south_bridge.io_apic.int_master::system.ruby.l1_cntrl1.sequencer.pio-slave-port          220                       # Cumulative packet size per connected master and slave (bytes)
system.iobus.pkt_size_system.pc.south_bridge.io_apic.int_master::total          220                       # Cumulative packet size per connected master and slave (bytes)
system.iobus.pkt_size_system.ruby.l1_cntrl0.sequencer.mem-master-port::system.ruby.l1_cntrl0.sequencer.pio-slave-port         2924                       # Cumulative packet size per connected master and slave (bytes)
system.iobus.pkt_size_system.ruby.l1_cntrl0.sequencer.mem-master-port::system.ruby.l1_cntrl1.sequencer.pio-slave-port           12                       # Cumulative packet size per connected master and slave (bytes)
system.iobus.pkt_size_system.ruby.l1_cntrl0.sequencer.mem-master-port::system.ruby.l1_cntrl2.sequencer.pio-slave-port           20                       # Cumulative packet size per connected master and slave (bytes)
system.iobus.pkt_size_system.ruby.l1_cntrl0.sequencer.mem-master-port::system.ruby.l1_cntrl3.sequencer.pio-slave-port            4                       # Cumulative packet size per connected master and slave (bytes)
system.iobus.pkt_size_system.ruby.l1_cntrl0.sequencer.mem-master-port::total         2960                       # Cumulative packet size per connected master and slave (bytes)
system.iobus.pkt_size_system.ruby.l1_cntrl1.sequencer.mem-master-port::system.pc.south_bridge.ide.pio           18                       # Cumulative packet size per connected master and slave (bytes)
system.iobus.pkt_size_system.ruby.l1_cntrl1.sequencer.mem-master-port::system.pc.com_1.pio          206                       # Cumulative packet size per connected master and slave (bytes)
system.iobus.pkt_size_system.ruby.l1_cntrl1.sequencer.mem-master-port::system.ruby.l1_cntrl0.sequencer.pio-slave-port            8                       # Cumulative packet size per connected master and slave (bytes)
system.iobus.pkt_size_system.ruby.l1_cntrl1.sequencer.mem-master-port::system.ruby.l1_cntrl1.sequencer.pio-slave-port         2956                       # Cumulative packet size per connected master and slave (bytes)
system.iobus.pkt_size_system.ruby.l1_cntrl1.sequencer.mem-master-port::system.ruby.l1_cntrl2.sequencer.pio-slave-port           20                       # Cumulative packet size per connected master and slave (bytes)
system.iobus.pkt_size_system.ruby.l1_cntrl1.sequencer.mem-master-port::system.ruby.l1_cntrl3.sequencer.pio-slave-port           20                       # Cumulative packet size per connected master and slave (bytes)
system.iobus.pkt_size_system.ruby.l1_cntrl1.sequencer.mem-master-port::total         3228                       # Cumulative packet size per connected master and slave (bytes)
system.iobus.pkt_size_system.ruby.l1_cntrl2.sequencer.mem-master-port::system.pc.com_1.pio            2                       # Cumulative packet size per connected master and slave (bytes)
system.iobus.pkt_size_system.ruby.l1_cntrl2.sequencer.mem-master-port::system.ruby.l1_cntrl0.sequencer.pio-slave-port           12                       # Cumulative packet size per connected master and slave (bytes)
system.iobus.pkt_size_system.ruby.l1_cntrl2.sequencer.mem-master-port::system.ruby.l1_cntrl1.sequencer.pio-slave-port           16                       # Cumulative packet size per connected master and slave (bytes)
system.iobus.pkt_size_system.ruby.l1_cntrl2.sequencer.mem-master-port::system.ruby.l1_cntrl2.sequencer.pio-slave-port         2952                       # Cumulative packet size per connected master and slave (bytes)
system.iobus.pkt_size_system.ruby.l1_cntrl2.sequencer.mem-master-port::system.ruby.l1_cntrl3.sequencer.pio-slave-port           20                       # Cumulative packet size per connected master and slave (bytes)
system.iobus.pkt_size_system.ruby.l1_cntrl2.sequencer.mem-master-port::total         3002                       # Cumulative packet size per connected master and slave (bytes)
system.iobus.pkt_size_system.ruby.l1_cntrl3.sequencer.mem-master-port::system.pc.south_bridge.ide.pio           60                       # Cumulative packet size per connected master and slave (bytes)
system.iobus.pkt_size_system.ruby.l1_cntrl3.sequencer.mem-master-port::system.ruby.l1_cntrl0.sequencer.pio-slave-port           48                       # Cumulative packet size per connected master and slave (bytes)
system.iobus.pkt_size_system.ruby.l1_cntrl3.sequencer.mem-master-port::system.ruby.l1_cntrl1.sequencer.pio-slave-port           64                       # Cumulative packet size per connected master and slave (bytes)
system.iobus.pkt_size_system.ruby.l1_cntrl3.sequencer.mem-master-port::system.ruby.l1_cntrl2.sequencer.pio-slave-port           60                       # Cumulative packet size per connected master and slave (bytes)
system.iobus.pkt_size_system.ruby.l1_cntrl3.sequencer.mem-master-port::system.ruby.l1_cntrl3.sequencer.pio-slave-port         3252                       # Cumulative packet size per connected master and slave (bytes)
system.iobus.pkt_size_system.ruby.l1_cntrl3.sequencer.mem-master-port::total         3484                       # Cumulative packet size per connected master and slave (bytes)
system.iobus.pkt_size::total                    12894                       # Cumulative packet size per connected master and slave (bytes)
system.iobus.reqLayer2.occupancy               114500                       # Layer occupancy (ticks)
system.iobus.reqLayer2.utilization                0.0                       # Layer utilization (%)
system.iobus.power_state.pwrStateResidencyTicks::UNDEFINED 102378717103001                       # Cumulative time (in ticks) in various power states
system.iobus.reqLayer19.occupancy             1873314                       # Layer occupancy (ticks)
system.iobus.reqLayer19.utilization               0.0                       # Layer utilization (%)
system.iobus.reqLayer17.occupancy             1827837                       # Layer occupancy (ticks)
system.iobus.reqLayer17.utilization               0.0                       # Layer utilization (%)
system.iobus.reqLayer12.occupancy              266500                       # Layer occupancy (ticks)
system.iobus.reqLayer12.utilization               0.0                       # Layer utilization (%)
system.iobus.reqLayer18.occupancy             1993789                       # Layer occupancy (ticks)
system.iobus.reqLayer18.utilization               0.0                       # Layer utilization (%)
system.iobus.respLayer9.occupancy             1363500                       # Layer occupancy (ticks)
system.iobus.respLayer9.utilization               0.0                       # Layer utilization (%)
system.iobus.respLayer5.occupancy             1517500                       # Layer occupancy (ticks)
system.iobus.respLayer5.utilization               0.0                       # Layer utilization (%)
system.iobus.respLayer7.occupancy             1129500                       # Layer occupancy (ticks)
system.iobus.respLayer7.utilization               0.0                       # Layer utilization (%)
system.iobus.respLayer0.occupancy               81497                       # Layer occupancy (ticks)
system.iobus.respLayer0.utilization               0.0                       # Layer utilization (%)
system.iobus.respLayer3.occupancy             1114500                       # Layer occupancy (ticks)
system.iobus.respLayer3.utilization               0.0                       # Layer utilization (%)
system.iobus.reqLayer20.occupancy             1967789                       # Layer occupancy (ticks)
system.iobus.reqLayer20.utilization               0.0                       # Layer utilization (%)

---------- End Simulation Statistics   ----------
