
---------- Begin Simulation Statistics ----------
final_tick                               98816454077501                       # Number of ticks from beginning of simulation (restored from checkpoints and never reset)
host_inst_rate                                 876287                       # Simulator instruction rate (inst/s)
host_mem_usage                                1541808                       # Number of bytes of host memory used
host_op_rate                                   951700                       # Simulator op (including micro ops) rate (op/s)
host_seconds                                  6995.65                       # Real time elapsed on the host
host_tick_rate                              134336206                       # Simulator tick rate (ticks/s)
sim_freq                                 1000000000000                       # Frequency of simulated ticks
sim_insts                                  6130192306                       # Number of instructions simulated
sim_ops                                    6657753845                       # Number of ops (including micro ops) simulated
sim_seconds                                  0.939768                       # Number of seconds simulated
sim_ticks                                939768497001                       # Number of ticks simulated
system.cpu0.committedInsts                          0                       # Number of instructions committed
system.cpu0.dtb.rdAccesses                          0                       # TLB accesses on read requests
system.cpu0.dtb.rdMisses                            0                       # TLB misses on read requests
system.cpu0.dtb.wrAccesses                          0                       # TLB accesses on write requests
system.cpu0.dtb.wrMisses                            0                       # TLB misses on write requests
system.cpu0.itb.rdAccesses                          0                       # TLB accesses on read requests
system.cpu0.itb.rdMisses                            0                       # TLB misses on read requests
system.cpu0.itb.wrAccesses                          0                       # TLB accesses on write requests
system.cpu0.itb.wrMisses                            0                       # TLB misses on write requests
system.cpu0.kern.inst.arm                           0                       # number of arm instructions executed
system.cpu0.kern.inst.quiesce                       0                       # number of quiesce instructions executed
system.cpu0.numCoalescedMMIO                        0                       # number of coalesced memory mapped IO requests
system.cpu0.numCycles                               0                       # number of cpu cycles simulated
system.cpu0.numExitSignal                           0                       # exits due to signal delivery
system.cpu0.numHalt                                 0                       # number of VM exits due to wait for interrupt instructions
system.cpu0.numHypercalls                           0                       # number of hypercalls
system.cpu0.numIO                                   0                       # number of VM exits due to legacy IO
system.cpu0.numInterrupts                           0                       # number of interrupts delivered
system.cpu0.numMMIO                                 0                       # number of VM exits due to memory mapped IO
system.cpu0.numVMExits                              0                       # total number of KVM exits
system.cpu0.numVMHalfEntries                        0                       # number of KVM entries to finalize pending operations
system.cpu0.numWorkItemsCompleted                   0                       # number of work items this cpu completed
system.cpu0.numWorkItemsStarted                     0                       # number of work items this cpu started
system.cpu1.committedInsts                          0                       # Number of instructions committed
system.cpu1.dtb.rdAccesses                          0                       # TLB accesses on read requests
system.cpu1.dtb.rdMisses                            0                       # TLB misses on read requests
system.cpu1.dtb.wrAccesses                          0                       # TLB accesses on write requests
system.cpu1.dtb.wrMisses                            0                       # TLB misses on write requests
system.cpu1.itb.rdAccesses                          0                       # TLB accesses on read requests
system.cpu1.itb.rdMisses                            0                       # TLB misses on read requests
system.cpu1.itb.wrAccesses                          0                       # TLB accesses on write requests
system.cpu1.itb.wrMisses                            0                       # TLB misses on write requests
system.cpu1.kern.inst.arm                           0                       # number of arm instructions executed
system.cpu1.kern.inst.quiesce                       0                       # number of quiesce instructions executed
system.cpu1.numCoalescedMMIO                        0                       # number of coalesced memory mapped IO requests
system.cpu1.numCycles                               0                       # number of cpu cycles simulated
system.cpu1.numExitSignal                           0                       # exits due to signal delivery
system.cpu1.numHalt                                 0                       # number of VM exits due to wait for interrupt instructions
system.cpu1.numHypercalls                           0                       # number of hypercalls
system.cpu1.numIO                                   0                       # number of VM exits due to legacy IO
system.cpu1.numInterrupts                           0                       # number of interrupts delivered
system.cpu1.numMMIO                                 0                       # number of VM exits due to memory mapped IO
system.cpu1.numVMExits                              0                       # total number of KVM exits
system.cpu1.numVMHalfEntries                        0                       # number of KVM entries to finalize pending operations
system.cpu1.numWorkItemsCompleted                   0                       # number of work items this cpu completed
system.cpu1.numWorkItemsStarted                     0                       # number of work items this cpu started
system.cpu2.committedInsts                          0                       # Number of instructions committed
system.cpu2.dtb.rdAccesses                          0                       # TLB accesses on read requests
system.cpu2.dtb.rdMisses                            0                       # TLB misses on read requests
system.cpu2.dtb.wrAccesses                          0                       # TLB accesses on write requests
system.cpu2.dtb.wrMisses                            0                       # TLB misses on write requests
system.cpu2.itb.rdAccesses                          0                       # TLB accesses on read requests
system.cpu2.itb.rdMisses                            0                       # TLB misses on read requests
system.cpu2.itb.wrAccesses                          0                       # TLB accesses on write requests
system.cpu2.itb.wrMisses                            0                       # TLB misses on write requests
system.cpu2.kern.inst.arm                           0                       # number of arm instructions executed
system.cpu2.kern.inst.quiesce                       0                       # number of quiesce instructions executed
system.cpu2.numCoalescedMMIO                        0                       # number of coalesced memory mapped IO requests
system.cpu2.numCycles                               0                       # number of cpu cycles simulated
system.cpu2.numExitSignal                           0                       # exits due to signal delivery
system.cpu2.numHalt                                 0                       # number of VM exits due to wait for interrupt instructions
system.cpu2.numHypercalls                           0                       # number of hypercalls
system.cpu2.numIO                                   0                       # number of VM exits due to legacy IO
system.cpu2.numInterrupts                           0                       # number of interrupts delivered
system.cpu2.numMMIO                                 0                       # number of VM exits due to memory mapped IO
system.cpu2.numVMExits                              0                       # total number of KVM exits
system.cpu2.numVMHalfEntries                        0                       # number of KVM entries to finalize pending operations
system.cpu2.numWorkItemsCompleted                   0                       # number of work items this cpu completed
system.cpu2.numWorkItemsStarted                     0                       # number of work items this cpu started
system.cpu3.committedInsts                          0                       # Number of instructions committed
system.cpu3.dtb.rdAccesses                          0                       # TLB accesses on read requests
system.cpu3.dtb.rdMisses                            0                       # TLB misses on read requests
system.cpu3.dtb.wrAccesses                          0                       # TLB accesses on write requests
system.cpu3.dtb.wrMisses                            0                       # TLB misses on write requests
system.cpu3.itb.rdAccesses                          0                       # TLB accesses on read requests
system.cpu3.itb.rdMisses                            0                       # TLB misses on read requests
system.cpu3.itb.wrAccesses                          0                       # TLB accesses on write requests
system.cpu3.itb.wrMisses                            0                       # TLB misses on write requests
system.cpu3.kern.inst.arm                           0                       # number of arm instructions executed
system.cpu3.kern.inst.quiesce                       0                       # number of quiesce instructions executed
system.cpu3.numCoalescedMMIO                        0                       # number of coalesced memory mapped IO requests
system.cpu3.numCycles                               0                       # number of cpu cycles simulated
system.cpu3.numExitSignal                           0                       # exits due to signal delivery
system.cpu3.numHalt                                 0                       # number of VM exits due to wait for interrupt instructions
system.cpu3.numHypercalls                           0                       # number of hypercalls
system.cpu3.numIO                                   0                       # number of VM exits due to legacy IO
system.cpu3.numInterrupts                           0                       # number of interrupts delivered
system.cpu3.numMMIO                                 0                       # number of VM exits due to memory mapped IO
system.cpu3.numVMExits                              0                       # total number of KVM exits
system.cpu3.numVMHalfEntries                        0                       # number of KVM entries to finalize pending operations
system.cpu3.numWorkItemsCompleted                   0                       # number of work items this cpu completed
system.cpu3.numWorkItemsStarted                     0                       # number of work items this cpu started
system.pc.south_bridge.ide.disks.dma_read_bytes       331776                       # Number of bytes transfered via DMA reads (not PRD).
system.pc.south_bridge.ide.disks.dma_read_full_pages           81                       # Number of full page size DMA reads (not PRD).
system.pc.south_bridge.ide.disks.dma_read_txs           81                       # Number of DMA read transactions (not PRD).
system.pc.south_bridge.ide.disks.dma_write_bytes       131072                       # Number of bytes transfered via DMA writes.
system.pc.south_bridge.ide.disks.dma_write_full_pages           32                       # Number of full page size DMA writes.
system.pc.south_bridge.ide.disks.dma_write_txs           32                       # Number of DMA write transactions.
system.ruby.DMA_Controller.I.allocI_load |        5236    100.00%    100.00% |           0      0.00%    100.00%
system.ruby.DMA_Controller.I.allocI_load::total         5236                      
system.ruby.DMA_Controller.I.allocI_store |        2048    100.00%    100.00% |           0      0.00%    100.00%
system.ruby.DMA_Controller.I.allocI_store::total         2048                      
system.ruby.DMA_Controller.I.deallocfwdfrom_in |        6260    100.00%    100.00% |           0      0.00%    100.00%
system.ruby.DMA_Controller.I.deallocfwdfrom_in::total         6260                      
system.ruby.DMA_Controller.M.MloadMEvent |           3    100.00%    100.00% |           0      0.00%    100.00%
system.ruby.DMA_Controller.M.MloadMEvent::total            3                      
system.ruby.DMA_Controller.M.allocTBE    |        6260    100.00%    100.00% |           0      0.00%    100.00%
system.ruby.DMA_Controller.M.allocTBE::total         6260                      
system.ruby.DMA_Controller.M.externalloadMrespfrom_in |        5236    100.00%    100.00% |           0      0.00%    100.00%
system.ruby.DMA_Controller.M.externalloadMrespfrom_in::total         5236                      
system.ruby.DMA_Controller.M.externalstoreMrespfrom_in |        2048    100.00%    100.00% |           0      0.00%    100.00%
system.ruby.DMA_Controller.M.externalstoreMrespfrom_in::total         2048                      
system.ruby.DMA_Controller.M_evict.Stallmandatory_in |      361958    100.00%    100.00% |           0      0.00%    100.00%
system.ruby.DMA_Controller.M_evict.Stallmandatory_in::total       361958                      
system.ruby.DMA_Controller.MloadMEvent   |           3    100.00%    100.00% |           0      0.00%    100.00%
system.ruby.DMA_Controller.MloadMEvent::total            3                      
system.ruby.DMA_Controller.Stallmandatory_in |      361958    100.00%    100.00% |           0      0.00%    100.00%
system.ruby.DMA_Controller.Stallmandatory_in::total       361958                      
system.ruby.DMA_Controller.allocI_load   |        5236    100.00%    100.00% |           0      0.00%    100.00%
system.ruby.DMA_Controller.allocI_load::total         5236                      
system.ruby.DMA_Controller.allocI_store  |        2048    100.00%    100.00% |           0      0.00%    100.00%
system.ruby.DMA_Controller.allocI_store::total         2048                      
system.ruby.DMA_Controller.allocTBE      |        6260    100.00%    100.00% |           0      0.00%    100.00%
system.ruby.DMA_Controller.allocTBE::total         6260                      
system.ruby.DMA_Controller.deallocfwdfrom_in |        6260    100.00%    100.00% |           0      0.00%    100.00%
system.ruby.DMA_Controller.deallocfwdfrom_in::total         6260                      
system.ruby.DMA_Controller.externalloadMrespfrom_in |        5236    100.00%    100.00% |           0      0.00%    100.00%
system.ruby.DMA_Controller.externalloadMrespfrom_in::total         5236                      
system.ruby.DMA_Controller.externalstoreMrespfrom_in |        2048    100.00%    100.00% |           0      0.00%    100.00%
system.ruby.DMA_Controller.externalstoreMrespfrom_in::total         2048                      
system.ruby.Directory_Controller.I.allocTBE |     1424138     25.23%     25.23% |     1448419     25.66%     50.88% |     1356080     24.02%     74.90% |     1416894     25.10%    100.00%
system.ruby.Directory_Controller.I.allocTBE::total      5645531                      
system.ruby.Directory_Controller.I.deallocTBE |     1423233     25.23%     25.23% |     1447498     25.66%     50.88% |     1355185     24.02%     74.90% |     1415949     25.10%    100.00%
system.ruby.Directory_Controller.I.deallocTBE::total      5641865                      
system.ruby.Directory_Controller.I_GetML1C1_0.Stallreqto_in |         365     20.21%     20.21% |         524     29.01%     49.22% |         525     29.07%     78.29% |         392     21.71%    100.00%
system.ruby.Directory_Controller.I_GetML1C1_0.Stallreqto_in::total         1806                      
system.ruby.Directory_Controller.M.allocTBE |     9229831     24.55%     24.55% |     9141986     24.32%     48.87% |     9666869     25.71%     74.58% |     9556418     25.42%    100.00%
system.ruby.Directory_Controller.M.allocTBE::total     37595104                      
system.ruby.Directory_Controller.M.deallocTBE |     9230736     24.55%     24.55% |     9142907     24.32%     48.87% |     9667764     25.71%     74.58% |     9557363     25.42%    100.00%
system.ruby.Directory_Controller.M.deallocTBE::total     37598770                      
system.ruby.Directory_Controller.M_PutML1C1_0.Stallreqto_in |         175     24.04%     24.04% |         164     22.53%     46.57% |         196     26.92%     73.49% |         193     26.51%    100.00%
system.ruby.Directory_Controller.M_PutML1C1_0.Stallreqto_in::total          728                      
system.ruby.Directory_Controller.Stallreqto_in |         540     21.31%     21.31% |         688     27.15%     48.46% |         721     28.45%     76.91% |         585     23.09%    100.00%
system.ruby.Directory_Controller.Stallreqto_in::total         2534                      
system.ruby.Directory_Controller.allocTBE |    10653969     24.64%     24.64% |    10590405     24.49%     49.13% |    11022949     25.49%     74.62% |    10973312     25.38%    100.00%
system.ruby.Directory_Controller.allocTBE::total     43240635                      
system.ruby.Directory_Controller.deallocTBE |    10653969     24.64%     24.64% |    10590405     24.49%     49.13% |    11022949     25.49%     74.62% |    10973312     25.38%    100.00%
system.ruby.Directory_Controller.deallocTBE::total     43240635                      
system.ruby.IFETCH.hit_latency_hist_seqr::bucket_size            1                      
system.ruby.IFETCH.hit_latency_hist_seqr::max_bucket            9                      
system.ruby.IFETCH.hit_latency_hist_seqr::samples   1001436789                      
system.ruby.IFETCH.hit_latency_hist_seqr |  1001436789    100.00%    100.00% |           0      0.00%    100.00% |           0      0.00%    100.00% |           0      0.00%    100.00% |           0      0.00%    100.00% |           0      0.00%    100.00% |           0      0.00%    100.00% |           0      0.00%    100.00% |           0      0.00%    100.00% |           0      0.00%    100.00%
system.ruby.IFETCH.hit_latency_hist_seqr::total   1001436789                      
system.ruby.IFETCH.latency_hist_seqr::bucket_size            1                      
system.ruby.IFETCH.latency_hist_seqr::max_bucket            9                      
system.ruby.IFETCH.latency_hist_seqr::samples   1023986837                      
system.ruby.IFETCH.latency_hist_seqr     |  1023986837    100.00%    100.00% |           0      0.00%    100.00% |           0      0.00%    100.00% |           0      0.00%    100.00% |           0      0.00%    100.00% |           0      0.00%    100.00% |           0      0.00%    100.00% |           0      0.00%    100.00% |           0      0.00%    100.00% |           0      0.00%    100.00%
system.ruby.IFETCH.latency_hist_seqr::total   1023986837                      
system.ruby.IFETCH.miss_latency_hist_seqr::bucket_size            1                      
system.ruby.IFETCH.miss_latency_hist_seqr::max_bucket            9                      
system.ruby.IFETCH.miss_latency_hist_seqr::samples     22550048                      
system.ruby.IFETCH.miss_latency_hist_seqr |    22550048    100.00%    100.00% |           0      0.00%    100.00% |           0      0.00%    100.00% |           0      0.00%    100.00% |           0      0.00%    100.00% |           0      0.00%    100.00% |           0      0.00%    100.00% |           0      0.00%    100.00% |           0      0.00%    100.00% |           0      0.00%    100.00%
system.ruby.IFETCH.miss_latency_hist_seqr::total     22550048                      
system.ruby.L1Cache_Controller.I.allocI_load |     9484737     25.60%     25.60% |     9394363     25.35%     50.95% |     9139066     24.66%     75.61% |     9036708     24.39%    100.00%
system.ruby.L1Cache_Controller.I.allocI_load::total     37054874                      
system.ruby.L1Cache_Controller.I.allocI_store |      279832     52.22%     52.22% |      107486     20.06%     72.27% |       71293     13.30%     85.58% |       77286     14.42%    100.00%
system.ruby.L1Cache_Controller.I.allocI_store::total       535897                      
system.ruby.L1Cache_Controller.I.deallocfwdfrom_in |     9764085     25.98%     25.98% |     9500881     25.28%     51.25% |     9210066     24.50%     75.76% |     9113097     24.24%    100.00%
system.ruby.L1Cache_Controller.I.deallocfwdfrom_in::total     37588129                      
system.ruby.L1Cache_Controller.I_load.Stallfwdfrom_in |       76527     24.99%     24.99% |       78348     25.58%     50.57% |       76651     25.03%     75.60% |       74738     24.40%    100.00%
system.ruby.L1Cache_Controller.I_load.Stallfwdfrom_in::total       306264                      
system.ruby.L1Cache_Controller.I_store.Stallfwdfrom_in |           0      0.00%      0.00% |           0      0.00%      0.00% |           0      0.00%      0.00% |           2    100.00%    100.00%
system.ruby.L1Cache_Controller.I_store.Stallfwdfrom_in::total            2                      
system.ruby.L1Cache_Controller.I_x_M_evict.Progress |         188     26.29%     26.29% |         188     26.29%     52.59% |         158     22.10%     74.69% |         181     25.31%    100.00%
system.ruby.L1Cache_Controller.I_x_M_evict.Progress::total          715                      
system.ruby.L1Cache_Controller.I_x_M_evict.Stallmandatory_in |         741     26.83%     26.83% |         719     26.03%     52.86% |         622     22.52%     75.38% |         680     24.62%    100.00%
system.ruby.L1Cache_Controller.I_x_M_evict.Stallmandatory_in::total         2762                      
system.ruby.L1Cache_Controller.M.MloadMEvent |   376615196     33.44%     33.44% |   249077826     22.12%     55.56% |   245086359     21.76%     77.33% |   255339289     22.67%    100.00%
system.ruby.L1Cache_Controller.M.MloadMEvent::total   1126118670                      
system.ruby.L1Cache_Controller.M.MstoreMEvent |    17697413     34.99%     34.99% |    11282171     22.31%     57.30% |    10546867     20.85%     78.15% |    11051364     21.85%    100.00%
system.ruby.L1Cache_Controller.M.MstoreMEvent::total     50577815                      
system.ruby.L1Cache_Controller.M.allocTBE |     9764085     25.98%     25.98% |     9500881     25.28%     51.25% |     9210066     24.50%     75.76% |     9113097     24.24%    100.00%
system.ruby.L1Cache_Controller.M.allocTBE::total     37588129                      
system.ruby.L1Cache_Controller.M.externalloadMrespfrom_in |     9484737     25.60%     25.60% |     9394363     25.35%     50.95% |     9139066     24.66%     75.61% |     9036708     24.39%    100.00%
system.ruby.L1Cache_Controller.M.externalloadMrespfrom_in::total     37054874                      
system.ruby.L1Cache_Controller.M.externalstoreMrespfrom_in |      279832     52.22%     52.22% |      107486     20.06%     72.27% |       71293     13.30%     85.58% |       77286     14.42%    100.00%
system.ruby.L1Cache_Controller.M.externalstoreMrespfrom_in::total       535897                      
system.ruby.L1Cache_Controller.M_evict.Stallmandatory_in |      782384     24.58%     24.58% |      800379     25.15%     49.73% |      800001     25.13%     74.86% |      800176     25.14%    100.00%
system.ruby.L1Cache_Controller.M_evict.Stallmandatory_in::total      3182940                      
system.ruby.L1Cache_Controller.MloadMEvent |   376615196     33.44%     33.44% |   249077826     22.12%     55.56% |   245086359     21.76%     77.33% |   255339289     22.67%    100.00%
system.ruby.L1Cache_Controller.MloadMEvent::total   1126118670                      
system.ruby.L1Cache_Controller.MstoreMEvent |    17697413     34.99%     34.99% |    11282171     22.31%     57.30% |    10546867     20.85%     78.15% |    11051364     21.85%    100.00%
system.ruby.L1Cache_Controller.MstoreMEvent::total     50577815                      
system.ruby.L1Cache_Controller.Progress  |         188     26.29%     26.29% |         188     26.29%     52.59% |         158     22.10%     74.69% |         181     25.31%    100.00%
system.ruby.L1Cache_Controller.Progress::total          715                      
system.ruby.L1Cache_Controller.Stallfwdfrom_in |       76527     24.99%     24.99% |       78348     25.58%     50.57% |       76651     25.03%     75.60% |       74740     24.40%    100.00%
system.ruby.L1Cache_Controller.Stallfwdfrom_in::total       306266                      
system.ruby.L1Cache_Controller.Stallmandatory_in |      783125     24.58%     24.58% |      801098     25.15%     49.73% |      800623     25.13%     74.86% |      800856     25.14%    100.00%
system.ruby.L1Cache_Controller.Stallmandatory_in::total      3185702                      
system.ruby.L1Cache_Controller.allocI_load |     9484737     25.60%     25.60% |     9394363     25.35%     50.95% |     9139066     24.66%     75.61% |     9036708     24.39%    100.00%
system.ruby.L1Cache_Controller.allocI_load::total     37054874                      
system.ruby.L1Cache_Controller.allocI_store |      279832     52.22%     52.22% |      107486     20.06%     72.27% |       71293     13.30%     85.58% |       77286     14.42%    100.00%
system.ruby.L1Cache_Controller.allocI_store::total       535897                      
system.ruby.L1Cache_Controller.allocTBE  |     9764085     25.98%     25.98% |     9500881     25.28%     51.25% |     9210066     24.50%     75.76% |     9113097     24.24%    100.00%
system.ruby.L1Cache_Controller.allocTBE::total     37588129                      
system.ruby.L1Cache_Controller.deallocfwdfrom_in |     9764085     25.98%     25.98% |     9500881     25.28%     51.25% |     9210066     24.50%     75.76% |     9113097     24.24%    100.00%
system.ruby.L1Cache_Controller.deallocfwdfrom_in::total     37588129                      
system.ruby.L1Cache_Controller.externalloadMrespfrom_in |     9484737     25.60%     25.60% |     9394363     25.35%     50.95% |     9139066     24.66%     75.61% |     9036708     24.39%    100.00%
system.ruby.L1Cache_Controller.externalloadMrespfrom_in::total     37054874                      
system.ruby.L1Cache_Controller.externalstoreMrespfrom_in |      279832     52.22%     52.22% |      107486     20.06%     72.27% |       71293     13.30%     85.58% |       77286     14.42%    100.00%
system.ruby.L1Cache_Controller.externalstoreMrespfrom_in::total       535897                      
system.ruby.LD.hit_latency_hist_seqr::bucket_size            1                      
system.ruby.LD.hit_latency_hist_seqr::max_bucket            9                      
system.ruby.LD.hit_latency_hist_seqr::samples    124681881                      
system.ruby.LD.hit_latency_hist_seqr     |   124681881    100.00%    100.00% |           0      0.00%    100.00% |           0      0.00%    100.00% |           0      0.00%    100.00% |           0      0.00%    100.00% |           0      0.00%    100.00% |           0      0.00%    100.00% |           0      0.00%    100.00% |           0      0.00%    100.00% |           0      0.00%    100.00%
system.ruby.LD.hit_latency_hist_seqr::total    124681881                      
system.ruby.LD.latency_hist_seqr::bucket_size            1                      
system.ruby.LD.latency_hist_seqr::max_bucket            9                      
system.ruby.LD.latency_hist_seqr::samples    139186707                      
system.ruby.LD.latency_hist_seqr         |   139186707    100.00%    100.00% |           0      0.00%    100.00% |           0      0.00%    100.00% |           0      0.00%    100.00% |           0      0.00%    100.00% |           0      0.00%    100.00% |           0      0.00%    100.00% |           0      0.00%    100.00% |           0      0.00%    100.00% |           0      0.00%    100.00%
system.ruby.LD.latency_hist_seqr::total     139186707                      
system.ruby.LD.miss_latency_hist_seqr::bucket_size            1                      
system.ruby.LD.miss_latency_hist_seqr::max_bucket            9                      
system.ruby.LD.miss_latency_hist_seqr::samples     14504826                      
system.ruby.LD.miss_latency_hist_seqr    |    14504826    100.00%    100.00% |           0      0.00%    100.00% |           0      0.00%    100.00% |           0      0.00%    100.00% |           0      0.00%    100.00% |           0      0.00%    100.00% |           0      0.00%    100.00% |           0      0.00%    100.00% |           0      0.00%    100.00% |           0      0.00%    100.00%
system.ruby.LD.miss_latency_hist_seqr::total     14504826                      
system.ruby.Locked_RMW_Read.hit_latency_hist_seqr::bucket_size            1                      
system.ruby.Locked_RMW_Read.hit_latency_hist_seqr::max_bucket            9                      
system.ruby.Locked_RMW_Read.hit_latency_hist_seqr::samples        78544                      
system.ruby.Locked_RMW_Read.hit_latency_hist_seqr |       78544    100.00%    100.00% |           0      0.00%    100.00% |           0      0.00%    100.00% |           0      0.00%    100.00% |           0      0.00%    100.00% |           0      0.00%    100.00% |           0      0.00%    100.00% |           0      0.00%    100.00% |           0      0.00%    100.00% |           0      0.00%    100.00%
system.ruby.Locked_RMW_Read.hit_latency_hist_seqr::total        78544                      
system.ruby.Locked_RMW_Read.latency_hist_seqr::bucket_size            1                      
system.ruby.Locked_RMW_Read.latency_hist_seqr::max_bucket            9                      
system.ruby.Locked_RMW_Read.latency_hist_seqr::samples        91790                      
system.ruby.Locked_RMW_Read.latency_hist_seqr |       91790    100.00%    100.00% |           0      0.00%    100.00% |           0      0.00%    100.00% |           0      0.00%    100.00% |           0      0.00%    100.00% |           0      0.00%    100.00% |           0      0.00%    100.00% |           0      0.00%    100.00% |           0      0.00%    100.00% |           0      0.00%    100.00%
system.ruby.Locked_RMW_Read.latency_hist_seqr::total        91790                      
system.ruby.Locked_RMW_Read.miss_latency_hist_seqr::bucket_size            1                      
system.ruby.Locked_RMW_Read.miss_latency_hist_seqr::max_bucket            9                      
system.ruby.Locked_RMW_Read.miss_latency_hist_seqr::samples        13246                      
system.ruby.Locked_RMW_Read.miss_latency_hist_seqr |       13246    100.00%    100.00% |           0      0.00%    100.00% |           0      0.00%    100.00% |           0      0.00%    100.00% |           0      0.00%    100.00% |           0      0.00%    100.00% |           0      0.00%    100.00% |           0      0.00%    100.00% |           0      0.00%    100.00% |           0      0.00%    100.00%
system.ruby.Locked_RMW_Read.miss_latency_hist_seqr::total        13246                      
system.ruby.Locked_RMW_Write.hit_latency_hist_seqr::bucket_size            1                      
system.ruby.Locked_RMW_Write.hit_latency_hist_seqr::max_bucket            9                      
system.ruby.Locked_RMW_Write.hit_latency_hist_seqr::samples        91790                      
system.ruby.Locked_RMW_Write.hit_latency_hist_seqr |       91790    100.00%    100.00% |           0      0.00%    100.00% |           0      0.00%    100.00% |           0      0.00%    100.00% |           0      0.00%    100.00% |           0      0.00%    100.00% |           0      0.00%    100.00% |           0      0.00%    100.00% |           0      0.00%    100.00% |           0      0.00%    100.00%
system.ruby.Locked_RMW_Write.hit_latency_hist_seqr::total        91790                      
system.ruby.Locked_RMW_Write.latency_hist_seqr::bucket_size            1                      
system.ruby.Locked_RMW_Write.latency_hist_seqr::max_bucket            9                      
system.ruby.Locked_RMW_Write.latency_hist_seqr::samples        91790                      
system.ruby.Locked_RMW_Write.latency_hist_seqr |       91790    100.00%    100.00% |           0      0.00%    100.00% |           0      0.00%    100.00% |           0      0.00%    100.00% |           0      0.00%    100.00% |           0      0.00%    100.00% |           0      0.00%    100.00% |           0      0.00%    100.00% |           0      0.00%    100.00% |           0      0.00%    100.00%
system.ruby.Locked_RMW_Write.latency_hist_seqr::total        91790                      
system.ruby.RMW_Read.hit_latency_hist_seqr::bucket_size            1                      
system.ruby.RMW_Read.hit_latency_hist_seqr::max_bucket            9                      
system.ruby.RMW_Read.hit_latency_hist_seqr::samples     11065209                      
system.ruby.RMW_Read.hit_latency_hist_seqr |    11065209    100.00%    100.00% |           0      0.00%    100.00% |           0      0.00%    100.00% |           0      0.00%    100.00% |           0      0.00%    100.00% |           0      0.00%    100.00% |           0      0.00%    100.00% |           0      0.00%    100.00% |           0      0.00%    100.00% |           0      0.00%    100.00%
system.ruby.RMW_Read.hit_latency_hist_seqr::total     11065209                      
system.ruby.RMW_Read.latency_hist_seqr::bucket_size            1                      
system.ruby.RMW_Read.latency_hist_seqr::max_bucket            9                      
system.ruby.RMW_Read.latency_hist_seqr::samples     11102533                      
system.ruby.RMW_Read.latency_hist_seqr   |    11102533    100.00%    100.00% |           0      0.00%    100.00% |           0      0.00%    100.00% |           0      0.00%    100.00% |           0      0.00%    100.00% |           0      0.00%    100.00% |           0      0.00%    100.00% |           0      0.00%    100.00% |           0      0.00%    100.00% |           0      0.00%    100.00%
system.ruby.RMW_Read.latency_hist_seqr::total     11102533                      
system.ruby.RMW_Read.miss_latency_hist_seqr::bucket_size            1                      
system.ruby.RMW_Read.miss_latency_hist_seqr::max_bucket            9                      
system.ruby.RMW_Read.miss_latency_hist_seqr::samples        37324                      
system.ruby.RMW_Read.miss_latency_hist_seqr |       37324    100.00%    100.00% |           0      0.00%    100.00% |           0      0.00%    100.00% |           0      0.00%    100.00% |           0      0.00%    100.00% |           0      0.00%    100.00% |           0      0.00%    100.00% |           0      0.00%    100.00% |           0      0.00%    100.00% |           0      0.00%    100.00%
system.ruby.RMW_Read.miss_latency_hist_seqr::total        37324                      
system.ruby.ST.hit_latency_hist_seqr::bucket_size            1                      
system.ruby.ST.hit_latency_hist_seqr::max_bucket            9                      
system.ruby.ST.hit_latency_hist_seqr::samples     39342272                      
system.ruby.ST.hit_latency_hist_seqr     |    39342272    100.00%    100.00% |           0      0.00%    100.00% |           0      0.00%    100.00% |           0      0.00%    100.00% |           0      0.00%    100.00% |           0      0.00%    100.00% |           0      0.00%    100.00% |           0      0.00%    100.00% |           0      0.00%    100.00% |           0      0.00%    100.00%
system.ruby.ST.hit_latency_hist_seqr::total     39342272                      
system.ruby.ST.latency_hist_seqr::bucket_size            1                      
system.ruby.ST.latency_hist_seqr::max_bucket            9                      
system.ruby.ST.latency_hist_seqr::samples     39827599                      
system.ruby.ST.latency_hist_seqr         |    39827599    100.00%    100.00% |           0      0.00%    100.00% |           0      0.00%    100.00% |           0      0.00%    100.00% |           0      0.00%    100.00% |           0      0.00%    100.00% |           0      0.00%    100.00% |           0      0.00%    100.00% |           0      0.00%    100.00% |           0      0.00%    100.00%
system.ruby.ST.latency_hist_seqr::total      39827599                      
system.ruby.ST.miss_latency_hist_seqr::bucket_size            1                      
system.ruby.ST.miss_latency_hist_seqr::max_bucket            9                      
system.ruby.ST.miss_latency_hist_seqr::samples       485327                      
system.ruby.ST.miss_latency_hist_seqr    |      485327    100.00%    100.00% |           0      0.00%    100.00% |           0      0.00%    100.00% |           0      0.00%    100.00% |           0      0.00%    100.00% |           0      0.00%    100.00% |           0      0.00%    100.00% |           0      0.00%    100.00% |           0      0.00%    100.00% |           0      0.00%    100.00%
system.ruby.ST.miss_latency_hist_seqr::total       485327                      
system.ruby.dir_cntrl0.fwdFrom.avg_buf_msgs     0.004911                       # Average number of messages in buffer
system.ruby.dir_cntrl0.fwdFrom.avg_stall_time   499.986046                       # Average number of cycles messages are stalled in this MB
system.ruby.dir_cntrl0.reqTo.avg_buf_msgs     0.005671                       # Average number of messages in buffer
system.ruby.dir_cntrl0.reqTo.avg_stall_time 13909.614664                       # Average number of cycles messages are stalled in this MB
system.ruby.dir_cntrl0.requestToMemory.avg_buf_msgs     0.007575                       # Average number of messages in buffer
system.ruby.dir_cntrl0.requestToMemory.avg_stall_time  2499.999956                       # Average number of cycles messages are stalled in this MB
system.ruby.dir_cntrl0.respFrom.avg_buf_msgs     0.000758                       # Average number of messages in buffer
system.ruby.dir_cntrl0.respFrom.avg_stall_time   500.013709                       # Average number of cycles messages are stalled in this MB
system.ruby.dir_cntrl0.responseFromMemory.avg_buf_msgs     0.001516                       # Average number of messages in buffer
system.ruby.dir_cntrl0.responseFromMemory.avg_stall_time   499.999946                       # Average number of cycles messages are stalled in this MB
system.ruby.dir_cntrl1.fwdFrom.avg_buf_msgs     0.004864                       # Average number of messages in buffer
system.ruby.dir_cntrl1.fwdFrom.avg_stall_time   499.996904                       # Average number of cycles messages are stalled in this MB
system.ruby.dir_cntrl1.reqTo.avg_buf_msgs     0.005638                       # Average number of messages in buffer
system.ruby.dir_cntrl1.reqTo.avg_stall_time 14060.543302                       # Average number of cycles messages are stalled in this MB
system.ruby.dir_cntrl1.requestToMemory.avg_buf_msgs     0.007704                       # Average number of messages in buffer
system.ruby.dir_cntrl1.requestToMemory.avg_stall_time  2499.998073                       # Average number of cycles messages are stalled in this MB
system.ruby.dir_cntrl1.respFrom.avg_buf_msgs     0.000771                       # Average number of messages in buffer
system.ruby.dir_cntrl1.respFrom.avg_stall_time   500.010594                       # Average number of cycles messages are stalled in this MB
system.ruby.dir_cntrl1.responseFromMemory.avg_buf_msgs     0.001542                       # Average number of messages in buffer
system.ruby.dir_cntrl1.responseFromMemory.avg_stall_time   499.999570                       # Average number of cycles messages are stalled in this MB
system.ruby.dir_cntrl2.fwdFrom.avg_buf_msgs     0.005143                       # Average number of messages in buffer
system.ruby.dir_cntrl2.fwdFrom.avg_stall_time   499.987546                       # Average number of cycles messages are stalled in this MB
system.ruby.dir_cntrl2.reqTo.avg_buf_msgs     0.005869                       # Average number of messages in buffer
system.ruby.dir_cntrl2.reqTo.avg_stall_time 14108.869118                       # Average number of cycles messages are stalled in this MB
system.ruby.dir_cntrl2.requestToMemory.avg_buf_msgs     0.007213                       # Average number of messages in buffer
system.ruby.dir_cntrl2.requestToMemory.avg_stall_time  2499.997455                       # Average number of cycles messages are stalled in this MB
system.ruby.dir_cntrl2.respFrom.avg_buf_msgs     0.000722                       # Average number of messages in buffer
system.ruby.dir_cntrl2.respFrom.avg_stall_time   500.007625                       # Average number of cycles messages are stalled in this MB
system.ruby.dir_cntrl2.responseFromMemory.avg_buf_msgs     0.001444                       # Average number of messages in buffer
system.ruby.dir_cntrl2.responseFromMemory.avg_stall_time   499.999446                       # Average number of cycles messages are stalled in this MB
system.ruby.dir_cntrl3.fwdFrom.avg_buf_msgs     0.005084                       # Average number of messages in buffer
system.ruby.dir_cntrl3.fwdFrom.avg_stall_time   499.987625                       # Average number of cycles messages are stalled in this MB
system.ruby.dir_cntrl3.reqTo.avg_buf_msgs     0.005841                       # Average number of messages in buffer
system.ruby.dir_cntrl3.reqTo.avg_stall_time 14264.456865                       # Average number of cycles messages are stalled in this MB
system.ruby.dir_cntrl3.requestToMemory.avg_buf_msgs     0.007536                       # Average number of messages in buffer
system.ruby.dir_cntrl3.requestToMemory.avg_stall_time  2499.999648                       # Average number of cycles messages are stalled in this MB
system.ruby.dir_cntrl3.respFrom.avg_buf_msgs     0.000754                       # Average number of messages in buffer
system.ruby.dir_cntrl3.respFrom.avg_stall_time   500.012359                       # Average number of cycles messages are stalled in this MB
system.ruby.dir_cntrl3.responseFromMemory.avg_buf_msgs     0.001509                       # Average number of messages in buffer
system.ruby.dir_cntrl3.responseFromMemory.avg_stall_time   499.999885                       # Average number of cycles messages are stalled in this MB
system.ruby.dma_cntrl0.cache.demand_accesses            0                       # Number of cache demand accesses
system.ruby.dma_cntrl0.cache.demand_hits            0                       # Number of cache demand hits
system.ruby.dma_cntrl0.cache.demand_misses            0                       # Number of cache demand misses
system.ruby.dma_cntrl0.fully_busy_cycles        63984                       # cycles for which number of transistions == max transitions
system.ruby.dma_cntrl0.fwdFrom.avg_buf_msgs     0.000003                       # Average number of messages in buffer
system.ruby.dma_cntrl0.fwdFrom.avg_stall_time 11846.493815                       # Average number of cycles messages are stalled in this MB
system.ruby.dma_cntrl0.mandatoryQueue.avg_buf_msgs     0.002271                       # Average number of messages in buffer
system.ruby.dma_cntrl0.mandatoryQueue.avg_stall_time 570293.380059                       # Average number of cycles messages are stalled in this MB
system.ruby.dma_cntrl0.reqTo.avg_buf_msgs     0.006024                       # Average number of messages in buffer
system.ruby.dma_cntrl0.reqTo.avg_stall_time 479326.645031                       # Average number of cycles messages are stalled in this MB
system.ruby.dma_cntrl0.respFrom.avg_buf_msgs     0.000004                       # Average number of messages in buffer
system.ruby.dma_cntrl0.respFrom.avg_stall_time 11850.976984                       # Average number of cycles messages are stalled in this MB
system.ruby.dma_cntrl0.respTo.avg_buf_msgs     0.000000                       # Average number of messages in buffer
system.ruby.dma_cntrl0.respTo.avg_stall_time   422.534531                       # Average number of cycles messages are stalled in this MB
system.ruby.hit_latency_hist_seqr::bucket_size            1                      
system.ruby.hit_latency_hist_seqr::max_bucket            9                      
system.ruby.hit_latency_hist_seqr::samples   1176696485                      
system.ruby.hit_latency_hist_seqr        |  1176696485    100.00%    100.00% |           0      0.00%    100.00% |           0      0.00%    100.00% |           0      0.00%    100.00% |           0      0.00%    100.00% |           0      0.00%    100.00% |           0      0.00%    100.00% |           0      0.00%    100.00% |           0      0.00%    100.00% |           0      0.00%    100.00%
system.ruby.hit_latency_hist_seqr::total   1176696485                      
system.ruby.io_controller.cache.demand_accesses            0                       # Number of cache demand accesses
system.ruby.io_controller.cache.demand_hits            0                       # Number of cache demand hits
system.ruby.io_controller.cache.demand_misses            0                       # Number of cache demand misses
system.ruby.l1_cntrl0.cache.demand_accesses            0                       # Number of cache demand accesses
system.ruby.l1_cntrl0.cache.demand_hits             0                       # Number of cache demand hits
system.ruby.l1_cntrl0.cache.demand_misses            0                       # Number of cache demand misses
system.ruby.l1_cntrl0.fully_busy_cycles           474                       # cycles for which number of transistions == max transitions
system.ruby.l1_cntrl0.fwdFrom.avg_buf_msgs     0.016705                       # Average number of messages in buffer
system.ruby.l1_cntrl0.fwdFrom.avg_stall_time 14460.149072                       # Average number of cycles messages are stalled in this MB
system.ruby.l1_cntrl0.mandatoryQueue.avg_buf_msgs     0.269521                       # Average number of messages in buffer
system.ruby.l1_cntrl0.mandatoryQueue.avg_stall_time  3313.008610                       # Average number of cycles messages are stalled in this MB
system.ruby.l1_cntrl0.reqTo.avg_buf_msgs     0.006135                       # Average number of messages in buffer
system.ruby.l1_cntrl0.reqTo.avg_stall_time   500.049001                       # Average number of cycles messages are stalled in this MB
system.ruby.l1_cntrl0.respFrom.avg_buf_msgs     0.005195                       # Average number of messages in buffer
system.ruby.l1_cntrl0.respFrom.avg_stall_time 14376.966853                       # Average number of cycles messages are stalled in this MB
system.ruby.l1_cntrl0.respTo.avg_buf_msgs     0.004256                       # Average number of messages in buffer
system.ruby.l1_cntrl0.respTo.avg_stall_time   499.875727                       # Average number of cycles messages are stalled in this MB
system.ruby.l1_cntrl1.cache.demand_accesses            0                       # Number of cache demand accesses
system.ruby.l1_cntrl1.cache.demand_hits             0                       # Number of cache demand hits
system.ruby.l1_cntrl1.cache.demand_misses            0                       # Number of cache demand misses
system.ruby.l1_cntrl1.fully_busy_cycles           407                       # cycles for which number of transistions == max transitions
system.ruby.l1_cntrl1.fwdFrom.avg_buf_msgs     0.005472                       # Average number of messages in buffer
system.ruby.l1_cntrl1.fwdFrom.avg_stall_time 14474.662153                       # Average number of cycles messages are stalled in this MB
system.ruby.l1_cntrl1.mandatoryQueue.avg_buf_msgs     0.188287                       # Average number of messages in buffer
system.ruby.l1_cntrl1.mandatoryQueue.avg_stall_time  2705.112736                       # Average number of cycles messages are stalled in this MB
system.ruby.l1_cntrl1.reqTo.avg_buf_msgs     0.005821                       # Average number of messages in buffer
system.ruby.l1_cntrl1.reqTo.avg_stall_time   499.695198                       # Average number of cycles messages are stalled in this MB
system.ruby.l1_cntrl1.respFrom.avg_buf_msgs     0.005055                       # Average number of messages in buffer
system.ruby.l1_cntrl1.respFrom.avg_stall_time 14416.933951                       # Average number of cycles messages are stalled in this MB
system.ruby.l1_cntrl1.respTo.avg_buf_msgs     0.004291                       # Average number of messages in buffer
system.ruby.l1_cntrl1.respTo.avg_stall_time   499.606743                       # Average number of cycles messages are stalled in this MB
system.ruby.l1_cntrl2.cache.demand_accesses            0                       # Number of cache demand accesses
system.ruby.l1_cntrl2.cache.demand_hits             0                       # Number of cache demand hits
system.ruby.l1_cntrl2.cache.demand_misses            0                       # Number of cache demand misses
system.ruby.l1_cntrl2.fully_busy_cycles           412                       # cycles for which number of transistions == max transitions
system.ruby.l1_cntrl2.fwdFrom.avg_buf_msgs     0.005308                       # Average number of messages in buffer
system.ruby.l1_cntrl2.fwdFrom.avg_stall_time 14353.499122                       # Average number of cycles messages are stalled in this MB
system.ruby.l1_cntrl2.mandatoryQueue.avg_buf_msgs     0.178735                       # Average number of messages in buffer
system.ruby.l1_cntrl2.mandatoryQueue.avg_stall_time  2325.385745                       # Average number of cycles messages are stalled in this MB
system.ruby.l1_cntrl2.reqTo.avg_buf_msgs     0.005542                       # Average number of messages in buffer
system.ruby.l1_cntrl2.reqTo.avg_stall_time   499.641055                       # Average number of cycles messages are stalled in this MB
system.ruby.l1_cntrl2.respFrom.avg_buf_msgs     0.004900                       # Average number of messages in buffer
system.ruby.l1_cntrl2.respFrom.avg_stall_time 14591.552719                       # Average number of cycles messages are stalled in this MB
system.ruby.l1_cntrl2.respTo.avg_buf_msgs     0.004259                       # Average number of messages in buffer
system.ruby.l1_cntrl2.respTo.avg_stall_time   499.595559                       # Average number of cycles messages are stalled in this MB
system.ruby.l1_cntrl3.cache.demand_accesses            0                       # Number of cache demand accesses
system.ruby.l1_cntrl3.cache.demand_hits             0                       # Number of cache demand hits
system.ruby.l1_cntrl3.cache.demand_misses            0                       # Number of cache demand misses
system.ruby.l1_cntrl3.fully_busy_cycles           451                       # cycles for which number of transistions == max transitions
system.ruby.l1_cntrl3.fwdFrom.avg_buf_msgs     0.005246                       # Average number of messages in buffer
system.ruby.l1_cntrl3.fwdFrom.avg_stall_time 14394.114068                       # Average number of cycles messages are stalled in this MB
system.ruby.l1_cntrl3.mandatoryQueue.avg_buf_msgs     0.185150                       # Average number of messages in buffer
system.ruby.l1_cntrl3.mandatoryQueue.avg_stall_time  2374.266350                       # Average number of cycles messages are stalled in this MB
system.ruby.l1_cntrl3.reqTo.avg_buf_msgs     0.005504                       # Average number of messages in buffer
system.ruby.l1_cntrl3.reqTo.avg_stall_time   499.911635                       # Average number of cycles messages are stalled in this MB
system.ruby.l1_cntrl3.respFrom.avg_buf_msgs     0.004849                       # Average number of messages in buffer
system.ruby.l1_cntrl3.respFrom.avg_stall_time 14474.929947                       # Average number of cycles messages are stalled in this MB
system.ruby.l1_cntrl3.respTo.avg_buf_msgs     0.004194                       # Average number of messages in buffer
system.ruby.l1_cntrl3.respTo.avg_stall_time   499.710275                       # Average number of cycles messages are stalled in this MB
system.ruby.latency_hist_seqr::bucket_size            1                      
system.ruby.latency_hist_seqr::max_bucket            9                      
system.ruby.latency_hist_seqr::samples     1214287256                      
system.ruby.latency_hist_seqr            |  1214287256    100.00%    100.00% |           0      0.00%    100.00% |           0      0.00%    100.00% |           0      0.00%    100.00% |           0      0.00%    100.00% |           0      0.00%    100.00% |           0      0.00%    100.00% |           0      0.00%    100.00% |           0      0.00%    100.00% |           0      0.00%    100.00%
system.ruby.latency_hist_seqr::total       1214287256                      
system.ruby.miss_latency_hist_seqr::bucket_size            1                      
system.ruby.miss_latency_hist_seqr::max_bucket            9                      
system.ruby.miss_latency_hist_seqr::samples     37590771                      
system.ruby.miss_latency_hist_seqr       |    37590771    100.00%    100.00% |           0      0.00%    100.00% |           0      0.00%    100.00% |           0      0.00%    100.00% |           0      0.00%    100.00% |           0      0.00%    100.00% |           0      0.00%    100.00% |           0      0.00%    100.00% |           0      0.00%    100.00% |           0      0.00%    100.00%
system.ruby.miss_latency_hist_seqr::total     37590771                      
system.ruby.network.average_flit_latency    16.790967                      
system.ruby.network.average_flit_network_latency    15.695422                      
system.ruby.network.average_flit_queueing_latency     1.095545                      
system.ruby.network.average_flit_vnet_latency |   16.041145                       |   16.082275                       |   15.058469                       |         nan                       |         nan                       |         nan                       |         nan                       |         nan                      
system.ruby.network.average_flit_vqueue_latency |    1.000046                       |    1.000000                       |    1.261653                       |         nan                       |         nan                       |         nan                       |         nan                       |         nan                      
system.ruby.network.average_hops             1.092828                      
system.ruby.network.average_packet_latency    26.818163                      
system.ruby.network.average_packet_network_latency    25.722618                      
system.ruby.network.average_packet_queueing_latency     1.095545                      
system.ruby.network.average_packet_vnet_latency |   26.073212                       |   26.103865                       |   25.086302                       |         nan                       |         nan                       |         nan                       |         nan                       |         nan                      
system.ruby.network.average_packet_vqueue_latency |    1.000046                       |    1.000000                       |    1.261653                       |         nan                       |         nan                       |         nan                       |         nan                       |         nan                      
system.ruby.network.avg_link_utilization     0.974430                      
system.ruby.network.avg_vc_load          |    0.252127     25.87%     25.87% |    0.027331      2.80%     28.68% |    0.025005      2.57%     31.25% |    0.025005      2.57%     33.81% |    0.213994     21.96%     55.77% |    0.035880      3.68%     59.45% |    0.025111      2.58%     62.03% |    0.025003      2.57%     64.60% |    0.243977     25.04%     89.64% |    0.042985      4.41%     94.05% |    0.029249      3.00%     97.05% |    0.028764      2.95%    100.00% |           0      0.00%    100.00% |           0      0.00%    100.00% |           0      0.00%    100.00% |           0      0.00%    100.00% |           0      0.00%    100.00% |           0      0.00%    100.00% |           0      0.00%    100.00% |           0      0.00%    100.00% |           0      0.00%    100.00% |           0      0.00%    100.00% |           0      0.00%    100.00% |           0      0.00%    100.00% |           0      0.00%    100.00% |           0      0.00%    100.00% |           0      0.00%    100.00% |           0      0.00%    100.00% |           0      0.00%    100.00% |           0      0.00%    100.00% |           0      0.00%    100.00% |           0      0.00%    100.00%
system.ruby.network.avg_vc_load::total       0.974430                      
system.ruby.network.ext_in_link_utilization    592168970                      
system.ruby.network.ext_out_link_utilization    592168970                      
system.ruby.network.flit_network_latency |  3015579202                       |  3023073952                       |  3255688800                       |           0                       |           0                       |           0                       |           0                       |           0                      
system.ruby.network.flit_queueing_latency |   187998930                       |   187975525                       |   272773345                       |           0                       |           0                       |           0                       |           0                       |           0                      
system.ruby.network.flits_injected       |   187990275     31.75%     31.75% |   187975520     31.74%     63.49% |   216203175     36.51%    100.00% |           0      0.00%    100.00% |           0      0.00%    100.00% |           0      0.00%    100.00% |           0      0.00%    100.00% |           0      0.00%    100.00%
system.ruby.network.flits_injected::total    592168970                      
system.ruby.network.flits_received       |   187990275     31.75%     31.75% |   187975520     31.74%     63.49% |   216203175     36.51%    100.00% |           0      0.00%    100.00% |           0      0.00%    100.00% |           0      0.00%    100.00% |           0      0.00%    100.00% |           0      0.00%    100.00%
system.ruby.network.flits_received::total    592168970                      
system.ruby.network.int_link_utilization    647138750                      
system.ruby.network.packet_network_latency |   980302057                       |   981377502                       |  1084747633                       |           0                       |           0                       |           0                       |           0                       |           0                      
system.ruby.network.packet_queueing_latency |    37599786                       |    37595105                       |    54554669                       |           0                       |           0                       |           0                       |           0                       |           0                      
system.ruby.network.packets_injected     |    37598055     31.75%     31.75% |    37595104     31.74%     63.49% |    43240635     36.51%    100.00% |           0      0.00%    100.00% |           0      0.00%    100.00% |           0      0.00%    100.00% |           0      0.00%    100.00% |           0      0.00%    100.00%
system.ruby.network.packets_injected::total    118433794                      
system.ruby.network.packets_received     |    37598055     31.75%     31.75% |    37595104     31.74%     63.49% |    43240635     36.51%    100.00% |           0      0.00%    100.00% |           0      0.00%    100.00% |           0      0.00%    100.00% |           0      0.00%    100.00% |           0      0.00%    100.00%
system.ruby.network.packets_received::total    118433794                      
system.ruby.network.routers0.buffer_reads    315587935                      
system.ruby.network.routers0.buffer_writes    315587935                      
system.ruby.network.routers0.crossbar_activity    315587935                      
system.ruby.network.routers0.sw_input_arbiter_activity    318029392                      
system.ruby.network.routers0.sw_output_arbiter_activity    315587935                      
system.ruby.network.routers1.buffer_reads    311286480                      
system.ruby.network.routers1.buffer_writes    311286480                      
system.ruby.network.routers1.crossbar_activity    311286480                      
system.ruby.network.routers1.sw_input_arbiter_activity    313710536                      
system.ruby.network.routers1.sw_output_arbiter_activity    311286480                      
system.ruby.network.routers2.buffer_reads    307467170                      
system.ruby.network.routers2.buffer_writes    307467170                      
system.ruby.network.routers2.crossbar_activity    307467170                      
system.ruby.network.routers2.sw_input_arbiter_activity    309944378                      
system.ruby.network.routers2.sw_output_arbiter_activity    307467170                      
system.ruby.network.routers3.buffer_reads    304966135                      
system.ruby.network.routers3.buffer_writes    304966135                      
system.ruby.network.routers3.crossbar_activity    304966135                      
system.ruby.network.routers3.sw_input_arbiter_activity    307407903                      
system.ruby.network.routers3.sw_output_arbiter_activity    304966135                      
system.ruby.outstanding_req_hist_seqr::bucket_size            1                      
system.ruby.outstanding_req_hist_seqr::max_bucket            9                      
system.ruby.outstanding_req_hist_seqr::samples   1214287256                      
system.ruby.outstanding_req_hist_seqr::mean     1.000461                      
system.ruby.outstanding_req_hist_seqr::gmean     1.000320                      
system.ruby.outstanding_req_hist_seqr::stdev     0.021473                      
system.ruby.outstanding_req_hist_seqr    |           0      0.00%      0.00% |  1213727078     99.95%     99.95% |      560178      0.05%    100.00% |           0      0.00%    100.00% |           0      0.00%    100.00% |           0      0.00%    100.00% |           0      0.00%    100.00% |           0      0.00%    100.00% |           0      0.00%    100.00% |           0      0.00%    100.00%
system.ruby.outstanding_req_hist_seqr::total   1214287256                      
system.switch_cpus0.Branches                 22012900                       # Number of branches fetched
system.switch_cpus0.committedInsts          249228833                       # Number of instructions committed
system.switch_cpus0.committedOps            421275166                       # Number of ops (including micro ops) committed
system.switch_cpus0.dtb.rdAccesses           48474675                       # TLB accesses on read requests
system.switch_cpus0.dtb.rdMisses               277956                       # TLB misses on read requests
system.switch_cpus0.dtb.wrAccesses           15352708                       # TLB accesses on write requests
system.switch_cpus0.dtb.wrMisses                14957                       # TLB misses on write requests
system.switch_cpus0.idle_fraction            0.046132                       # Percentage of idle cycles
system.switch_cpus0.itb.rdAccesses                  0                       # TLB accesses on read requests
system.switch_cpus0.itb.rdMisses                    0                       # TLB misses on read requests
system.switch_cpus0.itb.wrAccesses          339532283                       # TLB accesses on write requests
system.switch_cpus0.itb.wrMisses                21112                       # TLB misses on write requests
system.switch_cpus0.kern.inst.arm                   0                       # number of arm instructions executed
system.switch_cpus0.kern.inst.quiesce               0                       # number of quiesce instructions executed
system.switch_cpus0.not_idle_fraction        0.953868                       # Percentage of non-idle cycles
system.switch_cpus0.numCycles              1878568899                       # number of cpu cycles simulated
system.switch_cpus0.numWorkItemsCompleted            0                       # number of work items this cpu completed
system.switch_cpus0.numWorkItemsStarted             0                       # number of work items this cpu started
system.switch_cpus0.num_busy_cycles      1791906520.277516                       # Number of busy cycles
system.switch_cpus0.num_cc_register_reads    138929992                       # number of times the CC registers were read
system.switch_cpus0.num_cc_register_writes    118209578                       # number of times the CC registers were written
system.switch_cpus0.num_conditional_control_insts     19912542                       # number of instructions that are conditional controls
system.switch_cpus0.num_fp_alu_accesses     178241874                       # Number of float alu accesses
system.switch_cpus0.num_fp_insts            178241874                       # number of float instructions
system.switch_cpus0.num_fp_register_reads    337524151                       # number of times the floating registers were read
system.switch_cpus0.num_fp_register_writes    164860365                       # number of times the floating registers were written
system.switch_cpus0.num_func_calls            1572506                       # number of times a function call or return occured
system.switch_cpus0.num_idle_cycles      86662378.722484                       # Number of idle cycles
system.switch_cpus0.num_int_alu_accesses    276333069                       # Number of integer alu accesses
system.switch_cpus0.num_int_insts           276333069                       # number of integer instructions
system.switch_cpus0.num_int_register_reads    534215808                       # number of times the integer registers were read
system.switch_cpus0.num_int_register_writes    220980804                       # number of times the integer registers were written
system.switch_cpus0.num_load_insts           48046820                       # Number of load instructions
system.switch_cpus0.num_mem_refs             63374761                       # number of memory refs
system.switch_cpus0.num_store_insts          15327941                       # Number of store instructions
system.switch_cpus0.num_vec_alu_accesses            0                       # Number of vector alu accesses
system.switch_cpus0.num_vec_insts                   0                       # number of vector instructions
system.switch_cpus0.num_vec_register_reads            0                       # number of times the vector registers were read
system.switch_cpus0.num_vec_register_writes            0                       # number of times the vector registers were written
system.switch_cpus0.op_class::No_OpClass      2586856      0.61%      0.61% # Class of executed instruction
system.switch_cpus0.op_class::IntAlu        218433034     51.82%     52.44% # Class of executed instruction
system.switch_cpus0.op_class::IntMult         5246957      1.24%     53.68% # Class of executed instruction
system.switch_cpus0.op_class::IntDiv            68250      0.02%     53.70% # Class of executed instruction
system.switch_cpus0.op_class::FloatAdd       15400764      3.65%     57.35% # Class of executed instruction
system.switch_cpus0.op_class::FloatCmp              0      0.00%     57.35% # Class of executed instruction
system.switch_cpus0.op_class::FloatCvt            752      0.00%     57.35% # Class of executed instruction
system.switch_cpus0.op_class::FloatMult             0      0.00%     57.35% # Class of executed instruction
system.switch_cpus0.op_class::FloatMultAcc            0      0.00%     57.35% # Class of executed instruction
system.switch_cpus0.op_class::FloatDiv              0      0.00%     57.35% # Class of executed instruction
system.switch_cpus0.op_class::FloatMisc             0      0.00%     57.35% # Class of executed instruction
system.switch_cpus0.op_class::FloatSqrt             0      0.00%     57.35% # Class of executed instruction
system.switch_cpus0.op_class::SimdAdd             240      0.00%     57.35% # Class of executed instruction
system.switch_cpus0.op_class::SimdAddAcc            0      0.00%     57.35% # Class of executed instruction
system.switch_cpus0.op_class::SimdAlu        18828032      4.47%     61.82% # Class of executed instruction
system.switch_cpus0.op_class::SimdCmp               0      0.00%     61.82% # Class of executed instruction
system.switch_cpus0.op_class::SimdCvt             884      0.00%     61.82% # Class of executed instruction
system.switch_cpus0.op_class::SimdMisc       16324449      3.87%     65.69% # Class of executed instruction
system.switch_cpus0.op_class::SimdMult              0      0.00%     65.69% # Class of executed instruction
system.switch_cpus0.op_class::SimdMultAcc            0      0.00%     65.69% # Class of executed instruction
system.switch_cpus0.op_class::SimdShift           342      0.00%     65.69% # Class of executed instruction
system.switch_cpus0.op_class::SimdShiftAcc            0      0.00%     65.69% # Class of executed instruction
system.switch_cpus0.op_class::SimdDiv               0      0.00%     65.69% # Class of executed instruction
system.switch_cpus0.op_class::SimdSqrt              0      0.00%     65.69% # Class of executed instruction
system.switch_cpus0.op_class::SimdFloatAdd     35396056      8.40%     74.09% # Class of executed instruction
system.switch_cpus0.op_class::SimdFloatAlu            0      0.00%     74.09% # Class of executed instruction
system.switch_cpus0.op_class::SimdFloatCmp        13439      0.00%     74.10% # Class of executed instruction
system.switch_cpus0.op_class::SimdFloatCvt     16863551      4.00%     78.10% # Class of executed instruction
system.switch_cpus0.op_class::SimdFloatDiv       880305      0.21%     78.31% # Class of executed instruction
system.switch_cpus0.op_class::SimdFloatMisc            0      0.00%     78.31% # Class of executed instruction
system.switch_cpus0.op_class::SimdFloatMult     27789521      6.59%     84.90% # Class of executed instruction
system.switch_cpus0.op_class::SimdFloatMultAcc            0      0.00%     84.90% # Class of executed instruction
system.switch_cpus0.op_class::SimdFloatSqrt       274808      0.07%     84.96% # Class of executed instruction
system.switch_cpus0.op_class::SimdReduceAdd            0      0.00%     84.96% # Class of executed instruction
system.switch_cpus0.op_class::SimdReduceAlu            0      0.00%     84.96% # Class of executed instruction
system.switch_cpus0.op_class::SimdReduceCmp            0      0.00%     84.96% # Class of executed instruction
system.switch_cpus0.op_class::SimdFloatReduceAdd            0      0.00%     84.96% # Class of executed instruction
system.switch_cpus0.op_class::SimdFloatReduceCmp            0      0.00%     84.96% # Class of executed instruction
system.switch_cpus0.op_class::SimdAes               0      0.00%     84.96% # Class of executed instruction
system.switch_cpus0.op_class::SimdAesMix            0      0.00%     84.96% # Class of executed instruction
system.switch_cpus0.op_class::SimdSha1Hash            0      0.00%     84.96% # Class of executed instruction
system.switch_cpus0.op_class::SimdSha1Hash2            0      0.00%     84.96% # Class of executed instruction
system.switch_cpus0.op_class::SimdSha256Hash            0      0.00%     84.96% # Class of executed instruction
system.switch_cpus0.op_class::SimdSha256Hash2            0      0.00%     84.96% # Class of executed instruction
system.switch_cpus0.op_class::SimdShaSigma2            0      0.00%     84.96% # Class of executed instruction
system.switch_cpus0.op_class::SimdShaSigma3            0      0.00%     84.96% # Class of executed instruction
system.switch_cpus0.op_class::SimdPredAlu            0      0.00%     84.96% # Class of executed instruction
system.switch_cpus0.op_class::MemRead        32090740      7.61%     92.58% # Class of executed instruction
system.switch_cpus0.op_class::MemWrite       10742724      2.55%     95.13% # Class of executed instruction
system.switch_cpus0.op_class::FloatMemRead     15956080      3.79%     98.91% # Class of executed instruction
system.switch_cpus0.op_class::FloatMemWrite      4585217      1.09%    100.00% # Class of executed instruction
system.switch_cpus0.op_class::IprAccess             0      0.00%    100.00% # Class of executed instruction
system.switch_cpus0.op_class::InstPrefetch            0      0.00%    100.00% # Class of executed instruction
system.switch_cpus0.op_class::total         421483001                       # Class of executed instruction
system.switch_cpus1.Branches                 15945863                       # Number of branches fetched
system.switch_cpus1.committedInsts          168117561                       # Number of instructions committed
system.switch_cpus1.committedOps            286937168                       # Number of ops (including micro ops) committed
system.switch_cpus1.dtb.rdAccesses           33020488                       # TLB accesses on read requests
system.switch_cpus1.dtb.rdMisses               249671                       # TLB misses on read requests
system.switch_cpus1.dtb.wrAccesses            8662713                       # TLB accesses on write requests
system.switch_cpus1.dtb.wrMisses                 6850                       # TLB misses on write requests
system.switch_cpus1.idle_fraction            0.217552                       # Percentage of idle cycles
system.switch_cpus1.itb.rdAccesses                  0                       # TLB accesses on read requests
system.switch_cpus1.itb.rdMisses                    0                       # TLB misses on read requests
system.switch_cpus1.itb.wrAccesses          227427516                       # TLB accesses on write requests
system.switch_cpus1.itb.wrMisses                15284                       # TLB misses on write requests
system.switch_cpus1.kern.inst.arm                   0                       # number of arm instructions executed
system.switch_cpus1.kern.inst.quiesce               0                       # number of quiesce instructions executed
system.switch_cpus1.not_idle_fraction        0.782448                       # Percentage of non-idle cycles
system.switch_cpus1.numCycles              1879536887                       # number of cpu cycles simulated
system.switch_cpus1.numWorkItemsCompleted            0                       # number of work items this cpu completed
system.switch_cpus1.numWorkItemsStarted             0                       # number of work items this cpu started
system.switch_cpus1.num_busy_cycles      1470638989.260985                       # Number of busy cycles
system.switch_cpus1.num_cc_register_reads    108301459                       # number of times the CC registers were read
system.switch_cpus1.num_cc_register_writes     85755156                       # number of times the CC registers were written
system.switch_cpus1.num_conditional_control_insts     14635241                       # number of instructions that are conditional controls
system.switch_cpus1.num_fp_alu_accesses     121031658                       # Number of float alu accesses
system.switch_cpus1.num_fp_insts            121031658                       # number of float instructions
system.switch_cpus1.num_fp_register_reads    223593996                       # number of times the floating registers were read
system.switch_cpus1.num_fp_register_writes    111525537                       # number of times the floating registers were written
system.switch_cpus1.num_func_calls            1002096                       # number of times a function call or return occured
system.switch_cpus1.num_idle_cycles      408897897.739015                       # Number of idle cycles
system.switch_cpus1.num_int_alu_accesses    186444166                       # Number of integer alu accesses
system.switch_cpus1.num_int_insts           186444166                       # number of integer instructions
system.switch_cpus1.num_int_register_reads    363206860                       # number of times the integer registers were read
system.switch_cpus1.num_int_register_writes    153009112                       # number of times the integer registers were written
system.switch_cpus1.num_load_insts           32635720                       # Number of load instructions
system.switch_cpus1.num_mem_refs             41282117                       # number of memory refs
system.switch_cpus1.num_store_insts           8646397                       # Number of store instructions
system.switch_cpus1.num_vec_alu_accesses            0                       # Number of vector alu accesses
system.switch_cpus1.num_vec_insts                   0                       # number of vector instructions
system.switch_cpus1.num_vec_register_reads            0                       # number of times the vector registers were read
system.switch_cpus1.num_vec_register_writes            0                       # number of times the vector registers were written
system.switch_cpus1.op_class::No_OpClass      2199405      0.77%      0.77% # Class of executed instruction
system.switch_cpus1.op_class::IntAlu        159478564     55.57%     56.34% # Class of executed instruction
system.switch_cpus1.op_class::IntMult         5219158      1.82%     58.15% # Class of executed instruction
system.switch_cpus1.op_class::IntDiv            62806      0.02%     58.18% # Class of executed instruction
system.switch_cpus1.op_class::FloatAdd       14382490      5.01%     63.19% # Class of executed instruction
system.switch_cpus1.op_class::FloatCmp              0      0.00%     63.19% # Class of executed instruction
system.switch_cpus1.op_class::FloatCvt           1120      0.00%     63.19% # Class of executed instruction
system.switch_cpus1.op_class::FloatMult             0      0.00%     63.19% # Class of executed instruction
system.switch_cpus1.op_class::FloatMultAcc            0      0.00%     63.19% # Class of executed instruction
system.switch_cpus1.op_class::FloatDiv              0      0.00%     63.19% # Class of executed instruction
system.switch_cpus1.op_class::FloatMisc             0      0.00%     63.19% # Class of executed instruction
system.switch_cpus1.op_class::FloatSqrt             0      0.00%     63.19% # Class of executed instruction
system.switch_cpus1.op_class::SimdAdd             460      0.00%     63.19% # Class of executed instruction
system.switch_cpus1.op_class::SimdAddAcc            0      0.00%     63.19% # Class of executed instruction
[...]
system.iobus.pkt_count_system.ruby.l1_cntrl3.sequencer.mem-master-port::total         2308                       # Packet count per connected master and slave (bytes)
system.iobus.pkt_count::total                   12764                       # Packet count per connected master and slave (bytes)
system.iobus.pkt_size_system.pc.south_bridge.io_apic.int_master::system.ruby.l1_cntrl1.sequencer.pio-slave-port          660                       # Cumulative packet size per connected master and slave (bytes)
system.iobus.pkt_size_system.pc.south_bridge.io_apic.int_master::total          660                       # Cumulative packet size per connected master and slave (bytes)
system.iobus.pkt_size_system.ruby.l1_cntrl0.sequencer.mem-master-port::system.pc.south_bridge.ide.pio          980                       # Cumulative packet size per connected master and slave (bytes)
system.iobus.pkt_size_system.ruby.l1_cntrl0.sequencer.mem-master-port::system.ruby.l1_cntrl0.sequencer.pio-slave-port         4568                       # Cumulative packet size per connected master and slave (bytes)
system.iobus.pkt_size_system.ruby.l1_cntrl0.sequencer.mem-master-port::system.ruby.l1_cntrl1.sequencer.pio-slave-port          124                       # Cumulative packet size per connected master and slave (bytes)
system.iobus.pkt_size_system.ruby.l1_cntrl0.sequencer.mem-master-port::system.ruby.l1_cntrl2.sequencer.pio-slave-port           56                       # Cumulative packet size per connected master and slave (bytes)
system.iobus.pkt_size_system.ruby.l1_cntrl0.sequencer.mem-master-port::system.ruby.l1_cntrl3.sequencer.pio-slave-port           44                       # Cumulative packet size per connected master and slave (bytes)
system.iobus.pkt_size_system.ruby.l1_cntrl0.sequencer.mem-master-port::total         5772                       # Cumulative packet size per connected master and slave (bytes)
system.iobus.pkt_size_system.ruby.l1_cntrl1.sequencer.mem-master-port::system.pc.south_bridge.ide.pio          300                       # Cumulative packet size per connected master and slave (bytes)
system.iobus.pkt_size_system.ruby.l1_cntrl1.sequencer.mem-master-port::system.pc.com_1.pio          459                       # Cumulative packet size per connected master and slave (bytes)
system.iobus.pkt_size_system.ruby.l1_cntrl1.sequencer.mem-master-port::system.ruby.l1_cntrl0.sequencer.pio-slave-port           40                       # Cumulative packet size per connected master and slave (bytes)
system.iobus.pkt_size_system.ruby.l1_cntrl1.sequencer.mem-master-port::system.ruby.l1_cntrl1.sequencer.pio-slave-port         4468                       # Cumulative packet size per connected master and slave (bytes)
system.iobus.pkt_size_system.ruby.l1_cntrl1.sequencer.mem-master-port::system.ruby.l1_cntrl2.sequencer.pio-slave-port           32                       # Cumulative packet size per connected master and slave (bytes)
system.iobus.pkt_size_system.ruby.l1_cntrl1.sequencer.mem-master-port::system.ruby.l1_cntrl3.sequencer.pio-slave-port           24                       # Cumulative packet size per connected master and slave (bytes)
system.iobus.pkt_size_system.ruby.l1_cntrl1.sequencer.mem-master-port::total         5323                       # Cumulative packet size per connected master and slave (bytes)
system.iobus.pkt_size_system.ruby.l1_cntrl2.sequencer.mem-master-port::system.pc.com_1.pio            1                       # Cumulative packet size per connected master and slave (bytes)
system.iobus.pkt_size_system.ruby.l1_cntrl2.sequencer.mem-master-port::system.ruby.l1_cntrl0.sequencer.pio-slave-port           52                       # Cumulative packet size per connected master and slave (bytes)
system.iobus.pkt_size_system.ruby.l1_cntrl2.sequencer.mem-master-port::system.ruby.l1_cntrl1.sequencer.pio-slave-port           56                       # Cumulative packet size per connected master and slave (bytes)
system.iobus.pkt_size_system.ruby.l1_cntrl2.sequencer.mem-master-port::system.ruby.l1_cntrl2.sequencer.pio-slave-port         4360                       # Cumulative packet size per connected master and slave (bytes)
system.iobus.pkt_size_system.ruby.l1_cntrl2.sequencer.mem-master-port::system.ruby.l1_cntrl3.sequencer.pio-slave-port           56                       # Cumulative packet size per connected master and slave (bytes)
system.iobus.pkt_size_system.ruby.l1_cntrl2.sequencer.mem-master-port::total         4525                       # Cumulative packet size per connected master and slave (bytes)
system.iobus.pkt_size_system.ruby.l1_cntrl3.sequencer.mem-master-port::system.pc.south_bridge.ide.pio           20                       # Cumulative packet size per connected master and slave (bytes)
system.iobus.pkt_size_system.ruby.l1_cntrl3.sequencer.mem-master-port::system.ruby.l1_cntrl0.sequencer.pio-slave-port           48                       # Cumulative packet size per connected master and slave (bytes)
system.iobus.pkt_size_system.ruby.l1_cntrl3.sequencer.mem-master-port::system.ruby.l1_cntrl1.sequencer.pio-slave-port           60                       # Cumulative packet size per connected master and slave (bytes)
system.iobus.pkt_size_system.ruby.l1_cntrl3.sequencer.mem-master-port::system.ruby.l1_cntrl2.sequencer.pio-slave-port           64                       # Cumulative packet size per connected master and slave (bytes)
system.iobus.pkt_size_system.ruby.l1_cntrl3.sequencer.mem-master-port::system.ruby.l1_cntrl3.sequencer.pio-slave-port         4376                       # Cumulative packet size per connected master and slave (bytes)
system.iobus.pkt_size_system.ruby.l1_cntrl3.sequencer.mem-master-port::total         4568                       # Cumulative packet size per connected master and slave (bytes)
system.iobus.pkt_size::total                    20848                       # Cumulative packet size per connected master and slave (bytes)
system.iobus.reqLayer2.occupancy              2178000                       # Layer occupancy (ticks)
system.iobus.reqLayer2.utilization                0.0                       # Layer utilization (%)
system.iobus.power_state.pwrStateResidencyTicks::UNDEFINED 98816454077501                       # Cumulative time (in ticks) in various power states
system.iobus.reqLayer19.occupancy             2997746                       # Layer occupancy (ticks)
system.iobus.reqLayer19.utilization               0.0                       # Layer utilization (%)
system.iobus.reqLayer17.occupancy             3243070                       # Layer occupancy (ticks)
system.iobus.reqLayer17.utilization               0.0                       # Layer utilization (%)
system.iobus.reqLayer12.occupancy              590000                       # Layer occupancy (ticks)
system.iobus.reqLayer12.utilization               0.0                       # Layer utilization (%)
system.iobus.reqLayer18.occupancy             3555646                       # Layer occupancy (ticks)
system.iobus.reqLayer18.utilization               0.0                       # Layer utilization (%)
system.iobus.respLayer9.occupancy             1749500                       # Layer occupancy (ticks)
system.iobus.respLayer9.utilization               0.0                       # Layer utilization (%)
system.iobus.respLayer5.occupancy             3027500                       # Layer occupancy (ticks)
system.iobus.respLayer5.utilization               0.0                       # Layer utilization (%)
system.iobus.respLayer7.occupancy             1716500                       # Layer occupancy (ticks)
system.iobus.respLayer7.utilization               0.0                       # Layer utilization (%)
system.iobus.respLayer0.occupancy              269450                       # Layer occupancy (ticks)
system.iobus.respLayer0.utilization               0.0                       # Layer utilization (%)
system.iobus.respLayer3.occupancy             2865500                       # Layer occupancy (ticks)
system.iobus.respLayer3.utilization               0.0                       # Layer utilization (%)
system.iobus.reqLayer20.occupancy             3045233                       # Layer occupancy (ticks)
system.iobus.reqLayer20.utilization               0.0                       # Layer utilization (%)

---------- End Simulation Statistics   ----------
em.iobus.pkt_count_system.ruby.l1_cntrl1.sequencer.mem-master-port::system.pc.south_bridge.ide.pio           12                       # Packet count per connected master and slave (bytes)
system.iobus.pkt_count_system.ruby.l1_cntrl1.sequencer.mem-master-port::system.pc.com_1.pio          898                       # Packet count per connected master and slave (bytes)
system.iobus.pkt_count_system.ruby.l1_cntrl1.sequencer.mem-master-port::system.ruby.l1_cntrl0.sequencer.pio-slave-port           18                       # Packet count per connected master and slave (bytes)
system.iobus.pkt_count_system.ruby.l1_cntrl1.sequencer.mem-master-port::system.ruby.l1_cntrl1.sequencer.pio-slave-port         1660                       # Packet count per connected master and slave (bytes)
system.iobus.pkt_count_system.ruby.l1_cntrl1.sequencer.mem-master-port::system.ruby.l1_cntrl2.sequencer.pio-slave-port           20                       # Packet count per connected master and slave (bytes)
system.iobus.pkt_count_system.ruby.l1_cntrl1.sequencer.mem-master-port::system.ruby.l1_cntrl3.sequencer.pio-slave-port           22                       # Packet count per connected master and slave (bytes)
system.iobus.pkt_count_system.ruby.l1_cntrl1.sequencer.mem-master-port::total         2630                       # Packet count per connected master and slave (bytes)
system.iobus.pkt_count_system.ruby.l1_cntrl2.sequencer.mem-master-port::system.pc.south_bridge.ide.pio           34                       # Packet count per connected master and slave (bytes)
system.iobus.pkt_count_system.ruby.l1_cntrl2.sequencer.mem-master-port::system.ruby.l1_cntrl0.sequencer.pio-slave-port           36                       # Packet count per connected master and slave (bytes)
system.iobus.pkt_count_system.ruby.l1_cntrl2.sequencer.mem-master-port::system.ruby.l1_cntrl1.sequencer.pio-slave-port           68                       # Packet count per connected master and slave (bytes)
system.iobus.pkt_count_system.ruby.l1_cntrl2.sequencer.mem-master-port::system.ruby.l1_cntrl2.sequencer.pio-slave-port         1866                       # Packet count per connected master and slave (bytes)
system.iobus.pkt_count_system.ruby.l1_cntrl2.sequencer.mem-master-port::system.ruby.l1_cntrl3.sequencer.pio-slave-port           44                       # Packet count per connected master and slave (bytes)
system.iobus.pkt_count_system.ruby.l1_cntrl2.sequencer.mem-master-port::total         2048                       # Packet count per connected master and slave (bytes)
system.iobus.pkt_count_system.ruby.l1_cntrl3.sequencer.mem-master-port::system.ruby.l1_cntrl0.sequencer.pio-slave-port           22                       # Packet count per connected master and slave (bytes)
system.iobus.pkt_count_system.ruby.l1_cntrl3.sequencer.mem-master-port::system.ruby.l1_cntrl1.sequencer.pio-slave-port           20                       # Packet count per connected master and slave (bytes)
system.iobus.pkt_count_system.ruby.l1_cntrl3.sequencer.mem-master-port::system.ruby.l1_cntrl2.sequencer.pio-slave-port           24                       # Packet count per connected master and slave (bytes)
system.iobus.pkt_count_system.ruby.l1_cntrl3.sequencer.mem-master-port::system.ruby.l1_cntrl3.sequencer.pio-slave-port         1628                       # Packet count per connected master and slave (bytes)
system.iobus.pkt_count_system.ruby.l1_cntrl3.sequencer.mem-master-port::total         1694                       # Packet count per connected master and slave (bytes)
system.iobus.pkt_count::total                    8210                       # Packet count per connected master and slave (bytes)
system.iobus.pkt_size_system.pc.south_bridge.io_apic.int_master::system.ruby.l1_cntrl1.sequencer.pio-slave-port          452                       # Cumulative packet size per connected master and slave (bytes)
system.iobus.pkt_size_system.pc.south_bridge.io_apic.int_master::total          452                       # Cumulative packet size per connected master and slave (bytes)
system.iobus.pkt_size_system.ruby.l1_cntrl0.sequencer.mem-master-port::system.pc.com_1.pio            2                       # Cumulative packet size per connected master and slave (bytes)
system.iobus.pkt_size_system.ruby.l1_cntrl0.sequencer.mem-master-port::system.ruby.l1_cntrl0.sequencer.pio-slave-port         3132                       # Cumulative packet size per connected master and slave (bytes)
system.iobus.pkt_size_system.ruby.l1_cntrl0.sequencer.mem-master-port::system.ruby.l1_cntrl1.sequencer.pio-slave-port           28                       # Cumulative packet size per connected master and slave (bytes)
system.iobus.pkt_size_system.ruby.l1_cntrl0.sequencer.mem-master-port::system.ruby.l1_cntrl2.sequencer.pio-slave-port           28                       # Cumulative packet size per connected master and slave (bytes)
system.iobus.pkt_size_system.ruby.l1_cntrl0.sequencer.mem-master-port::system.ruby.l1_cntrl3.sequencer.pio-slave-port           28                       # Cumulative packet size per connected master and slave (bytes)
system.iobus.pkt_size_system.ruby.l1_cntrl0.sequencer.mem-master-port::total         3218                       # Cumulative packet size per connected master and slave (bytes)
system.iobus.pkt_size_system.ruby.l1_cntrl1.sequencer.mem-master-port::system.pc.south_bridge.ide.pio            6                       # Cumulative packet size per connected master and slave (bytes)
system.iobus.pkt_size_system.ruby.l1_cntrl1.sequencer.mem-master-port::system.pc.com_1.pio          449                       # Cumulative packet size per connected master and slave (bytes)
system.iobus.pkt_size_system.ruby.l1_cntrl1.sequencer.mem-master-port::system.ruby.l1_cntrl0.sequencer.pio-slave-port           36                       # Cumulative packet size per connected master and slave (bytes)
system.iobus.pkt_size_system.ruby.l1_cntrl1.sequencer.mem-master-port::system.ruby.l1_cntrl1.sequencer.pio-slave-port         3320                       # Cumulative packet size per connected master and slave (bytes)
system.iobus.pkt_size_system.ruby.l1_cntrl1.sequencer.mem-master-port::system.ruby.l1_cntrl2.sequencer.pio-slave-port           40                       # Cumulative packet size per connected master and slave (bytes)
system.iobus.pkt_size_system.ruby.l1_cntrl1.sequencer.mem-master-port::system.ruby.l1_cntrl3.sequencer.pio-slave-port           44                       # Cumulative packet size per connected master and slave (bytes)
system.iobus.pkt_size_system.ruby.l1_cntrl1.sequencer.mem-master-port::total         3895                       # Cumulative packet size per connected master and slave (bytes)
system.iobus.pkt_size_system.ruby.l1_cntrl2.sequencer.mem-master-port::system.pc.south_bridge.ide.pio           20                       # Cumulative packet size per connected master and slave (bytes)
system.iobus.pkt_size_system.ruby.l1_cntrl2.sequencer.mem-master-port::system.ruby.l1_cntrl0.sequencer.pio-slave-port           72                       # Cumulative packet size per connected master and slave (bytes)
system.iobus.pkt_size_system.ruby.l1_cntrl2.sequencer.mem-master-port::system.ruby.l1_cntrl1.sequencer.pio-slave-port          136                       # Cumulative packet size per connected master and slave (bytes)
system.iobus.pkt_size_system.ruby.l1_cntrl2.sequencer.mem-master-port::system.ruby.l1_cntrl2.sequencer.pio-slave-port         3732                       # Cumulative packet size per connected master and slave (bytes)
system.iobus.pkt_size_system.ruby.l1_cntrl2.sequencer.mem-master-port::system.ruby.l1_cntrl3.sequencer.pio-slave-port           88                       # Cumulative packet size per connected master and slave (bytes)
system.iobus.pkt_size_system.ruby.l1_cntrl2.sequencer.mem-master-port::total         4048                       # Cumulative packet size per connected master and slave (bytes)
system.iobus.pkt_size_system.ruby.l1_cntrl3.sequencer.mem-master-port::system.ruby.l1_cntrl0.sequencer.pio-slave-port           44                       # Cumulative packet size per connected master and slave (bytes)
system.iobus.pkt_size_system.ruby.l1_cntrl3.sequencer.mem-master-port::system.ruby.l1_cntrl1.sequencer.pio-slave-port           40                       # Cumulative packet size per connected master and slave (bytes)
system.iobus.pkt_size_system.ruby.l1_cntrl3.sequencer.mem-master-port::system.ruby.l1_cntrl2.sequencer.pio-slave-port           48                       # Cumulative packet size per connected master and slave (bytes)
system.iobus.pkt_size_system.ruby.l1_cntrl3.sequencer.mem-master-port::system.ruby.l1_cntrl3.sequencer.pio-slave-port         3256                       # Cumulative packet size per connected master and slave (bytes)
system.iobus.pkt_size_system.ruby.l1_cntrl3.sequencer.mem-master-port::total         3388                       # Cumulative packet size per connected master and slave (bytes)
system.iobus.pkt_size::total                    15001                       # Cumulative packet size per connected master and slave (bytes)
system.iobus.reqLayer2.occupancy                45000                       # Layer occupancy (ticks)
system.iobus.reqLayer2.utilization                0.0                       # Layer utilization (%)
system.iobus.power_state.pwrStateResidencyTicks::UNDEFINED 98590110852501                       # Cumulative time (in ticks) in various power states
system.iobus.reqLayer19.occupancy             2637767                       # Layer occupancy (ticks)
system.iobus.reqLayer19.utilization               0.0                       # Layer utilization (%)
system.iobus.reqLayer17.occupancy             2240499                       # Layer occupancy (ticks)
system.iobus.reqLayer17.utilization               0.0                       # Layer utilization (%)
system.iobus.reqLayer12.occupancy              584500                       # Layer occupancy (ticks)
system.iobus.reqLayer12.utilization               0.0                       # Layer utilization (%)
system.iobus.reqLayer18.occupancy             2552491                       # Layer occupancy (ticks)
system.iobus.reqLayer18.utilization               0.0                       # Layer utilization (%)
system.iobus.respLayer9.occupancy             1287000                       # Layer occupancy (ticks)
system.iobus.respLayer9.utilization               0.0                       # Layer utilization (%)
system.iobus.respLayer5.occupancy             2100500                       # Layer occupancy (ticks)
system.iobus.respLayer5.utilization               0.0                       # Layer utilization (%)
system.iobus.respLayer7.occupancy             1582500                       # Layer occupancy (ticks)
system.iobus.respLayer7.utilization               0.0                       # Layer utilization (%)
system.iobus.respLayer0.occupancy              164499                       # Layer occupancy (ticks)
system.iobus.respLayer0.utilization               0.0                       # Layer utilization (%)
system.iobus.respLayer3.occupancy             1217500                       # Layer occupancy (ticks)
system.iobus.respLayer3.utilization               0.0                       # Layer utilization (%)
system.iobus.reqLayer20.occupancy             2315480                       # Layer occupancy (ticks)
system.iobus.reqLayer20.utilization               0.0                       # Layer utilization (%)

---------- End Simulation Statistics   ----------
