
---------- Begin Simulation Statistics ----------
final_tick                               106824727586000                       # Number of ticks from beginning of simulation (restored from checkpoints and never reset)
host_inst_rate                              177929292                       # Simulator instruction rate (inst/s)
host_mem_usage                                1226252                       # Number of bytes of host memory used
host_op_rate                                177929020                       # Simulator op (including micro ops) rate (op/s)
host_seconds                                    60.48                       # Real time elapsed on the host
host_tick_rate                           1766145670267                       # Simulator tick rate (ticks/s)
sim_freq                                 1000000000000                       # Frequency of simulated ticks
sim_insts                                 10761974728                       # Number of instructions simulated
sim_ops                                   10761974728                       # Number of ops (including micro ops) simulated
sim_seconds                                106.824728                       # Number of seconds simulated
sim_ticks                                106824727586000                       # Number of ticks simulated
system.cpu0.committedInsts                 2805691636                       # Number of instructions committed
system.cpu0.dtb.rdAccesses                          0                       # TLB accesses on read requests
system.cpu0.dtb.rdMisses                            0                       # TLB misses on read requests
system.cpu0.dtb.wrAccesses                          0                       # TLB accesses on write requests
system.cpu0.dtb.wrMisses                            0                       # TLB misses on write requests
system.cpu0.itb.rdAccesses                          0                       # TLB accesses on read requests
system.cpu0.itb.rdMisses                            0                       # TLB misses on read requests
system.cpu0.itb.wrAccesses                          0                       # TLB accesses on write requests
system.cpu0.itb.wrMisses                            0                       # TLB misses on write requests
system.cpu0.kern.inst.arm                           0                       # number of arm instructions executed
system.cpu0.kern.inst.quiesce                       0                       # number of quiesce instructions executed
system.cpu0.numCoalescedMMIO                        0                       # number of coalesced memory mapped IO requests
system.cpu0.numCycles                    213649306109                       # number of cpu cycles simulated
system.cpu0.numExitSignal                      358314                       # exits due to signal delivery
system.cpu0.numHalt                            103048                       # number of VM exits due to wait for interrupt instructions
system.cpu0.numHypercalls                           0                       # number of hypercalls
system.cpu0.numIO                               40887                       # number of VM exits due to legacy IO
system.cpu0.numInterrupts                      114523                       # number of interrupts delivered
system.cpu0.numMMIO                            124189                       # number of VM exits due to memory mapped IO
system.cpu0.numVMExits                         632678                       # total number of KVM exits
system.cpu0.numVMHalfEntries                        8                       # number of KVM entries to finalize pending operations
system.cpu0.numWorkItemsCompleted                   0                       # number of work items this cpu completed
system.cpu0.numWorkItemsStarted                     0                       # number of work items this cpu started
system.cpu1.committedInsts                  626238955                       # Number of instructions committed
system.cpu1.dtb.rdAccesses                          0                       # TLB accesses on read requests
system.cpu1.dtb.rdMisses                            0                       # TLB misses on read requests
system.cpu1.dtb.wrAccesses                          0                       # TLB accesses on write requests
system.cpu1.dtb.wrMisses                            0                       # TLB misses on write requests
system.cpu1.itb.rdAccesses                          0                       # TLB accesses on read requests
system.cpu1.itb.rdMisses                            0                       # TLB misses on read requests
system.cpu1.itb.wrAccesses                          0                       # TLB accesses on write requests
system.cpu1.itb.wrMisses                            0                       # TLB misses on write requests
system.cpu1.kern.inst.arm                           0                       # number of arm instructions executed
system.cpu1.kern.inst.quiesce                       0                       # number of quiesce instructions executed
system.cpu1.numCoalescedMMIO                        0                       # number of coalesced memory mapped IO requests
system.cpu1.numCycles                    213648947297                       # number of cpu cycles simulated
system.cpu1.numExitSignal                      306654                       # exits due to signal delivery
system.cpu1.numHalt                             97538                       # number of VM exits due to wait for interrupt instructions
system.cpu1.numHypercalls                           0                       # number of hypercalls
system.cpu1.numIO                              131785                       # number of VM exits due to legacy IO
system.cpu1.numInterrupts                      104837                       # number of interrupts delivered
system.cpu1.numMMIO                            132147                       # number of VM exits due to memory mapped IO
system.cpu1.numVMExits                         672835                       # total number of KVM exits
system.cpu1.numVMHalfEntries                       14                       # number of KVM entries to finalize pending operations
system.cpu1.numWorkItemsCompleted                   0                       # number of work items this cpu completed
system.cpu1.numWorkItemsStarted                     0                       # number of work items this cpu started
system.cpu2.committedInsts                 1220355810                       # Number of instructions committed
system.cpu2.dtb.rdAccesses                          0                       # TLB accesses on read requests
system.cpu2.dtb.rdMisses                            0                       # TLB misses on read requests
system.cpu2.dtb.wrAccesses                          0                       # TLB accesses on write requests
system.cpu2.dtb.wrMisses                            0                       # TLB misses on write requests
system.cpu2.itb.rdAccesses                          0                       # TLB accesses on read requests
system.cpu2.itb.rdMisses                            0                       # TLB misses on read requests
system.cpu2.itb.wrAccesses                          0                       # TLB accesses on write requests
system.cpu2.itb.wrMisses                            0                       # TLB misses on write requests
system.cpu2.kern.inst.arm                           0                       # number of arm instructions executed
system.cpu2.kern.inst.quiesce                       0                       # number of quiesce instructions executed
system.cpu2.numCoalescedMMIO                        0                       # number of coalesced memory mapped IO requests
system.cpu2.numCycles                    213649327691                       # number of cpu cycles simulated
system.cpu2.numExitSignal                      355677                       # exits due to signal delivery
system.cpu2.numHalt                            102710                       # number of VM exits due to wait for interrupt instructions
system.cpu2.numHypercalls                           0                       # number of hypercalls
system.cpu2.numIO                                9937                       # number of VM exits due to legacy IO
system.cpu2.numInterrupts                      108944                       # number of interrupts delivered
system.cpu2.numMMIO                            117141                       # number of VM exits due to memory mapped IO
system.cpu2.numVMExits                         587870                       # total number of KVM exits
system.cpu2.numVMHalfEntries                       35                       # number of KVM entries to finalize pending operations
system.cpu2.numWorkItemsCompleted                   0                       # number of work items this cpu completed
system.cpu2.numWorkItemsStarted                     0                       # number of work items this cpu started
system.cpu3.committedInsts                 6109688327                       # Number of instructions committed
system.cpu3.dtb.rdAccesses                          0                       # TLB accesses on read requests
system.cpu3.dtb.rdMisses                            0                       # TLB misses on read requests
system.cpu3.dtb.wrAccesses                          0                       # TLB accesses on write requests
system.cpu3.dtb.wrMisses                            0                       # TLB misses on write requests
system.cpu3.itb.rdAccesses                          0                       # TLB accesses on read requests
system.cpu3.itb.rdMisses                            0                       # TLB misses on read requests
system.cpu3.itb.wrAccesses                          0                       # TLB accesses on write requests
system.cpu3.itb.wrMisses                            0                       # TLB misses on write requests
system.cpu3.kern.inst.arm                           0                       # number of arm instructions executed
system.cpu3.kern.inst.quiesce                       0                       # number of quiesce instructions executed
system.cpu3.numCoalescedMMIO                        0                       # number of coalesced memory mapped IO requests
system.cpu3.numCycles                    213648243430                       # number of cpu cycles simulated
system.cpu3.numExitSignal                      395895                       # exits due to signal delivery
system.cpu3.numHalt                            100929                       # number of VM exits due to wait for interrupt instructions
system.cpu3.numHypercalls                           0                       # number of hypercalls
system.cpu3.numIO                               16784                       # number of VM exits due to legacy IO
system.cpu3.numInterrupts                      111877                       # number of interrupts delivered
system.cpu3.numMMIO                            116056                       # number of VM exits due to memory mapped IO
system.cpu3.numVMExits                         633037                       # total number of KVM exits
system.cpu3.numVMHalfEntries                       63                       # number of KVM entries to finalize pending operations
system.cpu3.numWorkItemsCompleted                   0                       # number of work items this cpu completed
system.cpu3.numWorkItemsStarted                     0                       # number of work items this cpu started
system.pc.south_bridge.ide.disks.dma_read_bytes     14663680                       # Number of bytes transfered via DMA reads (not PRD).
system.pc.south_bridge.ide.disks.dma_read_full_pages         3580                       # Number of full page size DMA reads (not PRD).
system.pc.south_bridge.ide.disks.dma_read_txs         3580                       # Number of DMA read transactions (not PRD).
system.pc.south_bridge.ide.disks.dma_write_bytes     90822656                       # Number of bytes transfered via DMA writes.
system.pc.south_bridge.ide.disks.dma_write_full_pages        22173                       # Number of full page size DMA writes.
system.pc.south_bridge.ide.disks.dma_write_txs        22175                       # Number of DMA write transactions.
system.ruby.dma_cntrl0.cache.demand_accesses            0                       # Number of cache demand accesses
system.ruby.dma_cntrl0.cache.demand_hits            0                       # Number of cache demand hits
system.ruby.dma_cntrl0.cache.demand_misses            0                       # Number of cache demand misses
system.ruby.io_controller.cache.demand_accesses            0                       # Number of cache demand accesses
system.ruby.io_controller.cache.demand_hits            0                       # Number of cache demand hits
system.ruby.io_controller.cache.demand_misses            0                       # Number of cache demand misses
system.ruby.l1_cntrl0.cache.demand_accesses            0                       # Number of cache demand accesses
system.ruby.l1_cntrl0.cache.demand_hits             0                       # Number of cache demand hits
system.ruby.l1_cntrl0.cache.demand_misses            0                       # Number of cache demand misses
system.ruby.l1_cntrl1.cache.demand_accesses            0                       # Number of cache demand accesses
system.ruby.l1_cntrl1.cache.demand_hits             0                       # Number of cache demand hits
system.ruby.l1_cntrl1.cache.demand_misses            0                       # Number of cache demand misses
system.ruby.l1_cntrl2.cache.demand_accesses            0                       # Number of cache demand accesses
system.ruby.l1_cntrl2.cache.demand_hits             0                       # Number of cache demand hits
system.ruby.l1_cntrl2.cache.demand_misses            0                       # Number of cache demand misses
system.ruby.l1_cntrl3.cache.demand_accesses            0                       # Number of cache demand accesses
system.ruby.l1_cntrl3.cache.demand_hits             0                       # Number of cache demand hits
system.ruby.l1_cntrl3.cache.demand_misses            0                       # Number of cache demand misses
system.ruby.network.average_flit_latency          nan                      
system.ruby.network.average_flit_network_latency          nan                      
system.ruby.network.average_flit_queueing_latency          nan                      
system.ruby.network.average_flit_vnet_latency |         nan                       |         nan                       |         nan                       |         nan                       |         nan                      
system.ruby.network.average_flit_vqueue_latency |         nan                       |         nan                       |         nan                       |         nan                       |         nan                      
system.ruby.network.average_hops                  nan                      
system.ruby.network.average_packet_latency          nan                      
system.ruby.network.average_packet_network_latency          nan                      
system.ruby.network.average_packet_queueing_latency          nan                      
system.ruby.network.average_packet_vnet_latency |         nan                       |         nan                       |         nan                       |         nan                       |         nan                      
system.ruby.network.average_packet_vqueue_latency |         nan                       |         nan                       |         nan                       |         nan                       |         nan                      
system.ruby.network.avg_link_utilization            0                      
system.ruby.network.ext_in_link_utilization            0                      
system.ruby.network.ext_out_link_utilization            0                      
system.ruby.network.flit_network_latency |           0                       |           0                       |           0                       |           0                       |           0                      
system.ruby.network.flit_queueing_latency |           0                       |           0                       |           0                       |           0                       |           0                      
system.ruby.network.int_link_utilization            0                      
system.ruby.network.packet_network_latency |           0                       |           0                       |           0                       |           0                       |           0                      
system.ruby.network.packet_queueing_latency |           0                       |           0                       |           0                       |           0                       |           0                      
system.switch_cpus0.committedInsts                  0                       # Number of instructions committed
system.switch_cpus0.committedOps                    0                       # Number of ops (including micro ops) committed
system.switch_cpus0.dtb.rdAccesses                  0                       # TLB accesses on read requests
system.switch_cpus0.dtb.rdMisses                    0                       # TLB misses on read requests
system.switch_cpus0.dtb.wrAccesses                  0                       # TLB accesses on write requests
system.switch_cpus0.dtb.wrMisses                    0                       # TLB misses on write requests
system.switch_cpus0.idle_fraction                   1                       # Percentage of idle cycles
system.switch_cpus0.itb.rdAccesses                  0                       # TLB accesses on read requests
system.switch_cpus0.itb.rdMisses                    0                       # TLB misses on read requests
system.switch_cpus0.itb.wrAccesses                  0                       # TLB accesses on write requests
system.switch_cpus0.itb.wrMisses                    0                       # TLB misses on write requests
system.switch_cpus0.kern.inst.arm                   0                       # number of arm instructions executed
system.switch_cpus0.kern.inst.quiesce               0                       # number of quiesce instructions executed
system.switch_cpus0.not_idle_fraction               0                       # Percentage of non-idle cycles
system.switch_cpus0.numCycles                       0                       # number of cpu cycles simulated
system.switch_cpus0.numWorkItemsCompleted            0                       # number of work items this cpu completed
system.switch_cpus0.numWorkItemsStarted             0                       # number of work items this cpu started
system.switch_cpus0.num_busy_cycles                 0                       # Number of busy cycles
system.switch_cpus0.num_conditional_control_insts            0                       # number of instructions that are conditional controls
system.switch_cpus0.num_fp_alu_accesses             0                       # Number of float alu accesses
system.switch_cpus0.num_fp_insts                    0                       # number of float instructions
system.switch_cpus0.num_fp_register_reads            0                       # number of times the floating registers were read
system.switch_cpus0.num_fp_register_writes            0                       # number of times the floating registers were written
system.switch_cpus0.num_func_calls                  0                       # number of times a function call or return occured
system.switch_cpus0.num_idle_cycles                 0                       # Number of idle cycles
system.switch_cpus0.num_int_alu_accesses            0                       # Number of integer alu accesses
system.switch_cpus0.num_int_insts                   0                       # number of integer instructions
system.switch_cpus0.num_int_register_reads            0                       # number of times the integer registers were read
system.switch_cpus0.num_int_register_writes            0                       # number of times the integer registers were written
system.switch_cpus0.num_load_insts                  0                       # Number of load instructions
system.switch_cpus0.num_mem_refs                    0                       # number of memory refs
system.switch_cpus0.num_store_insts                 0                       # Number of store instructions
system.switch_cpus0.num_vec_alu_accesses            0                       # Number of vector alu accesses
system.switch_cpus0.num_vec_insts                   0                       # number of vector instructions
system.switch_cpus0.num_vec_register_reads            0                       # number of times the vector registers were read
system.switch_cpus0.num_vec_register_writes            0                       # number of times the vector registers were written
system.switch_cpus0.op_class::No_OpClass            0                       # Class of executed instruction
system.switch_cpus0.op_class::IntAlu                0                       # Class of executed instruction
system.switch_cpus0.op_class::IntMult               0                       # Class of executed instruction
system.switch_cpus0.op_class::IntDiv                0                       # Class of executed instruction
system.switch_cpus0.op_class::FloatAdd              0                       # Class of executed instruction
system.switch_cpus0.op_class::FloatCmp              0                       # Class of executed instruction
system.switch_cpus0.op_class::FloatCvt              0                       # Class of executed instruction
system.switch_cpus0.op_class::FloatMult             0                       # Class of executed instruction
system.switch_cpus0.op_class::FloatMultAcc            0                       # Class of executed instruction
system.switch_cpus0.op_class::FloatDiv              0                       # Class of executed instruction
system.switch_cpus0.op_class::FloatMisc             0                       # Class of executed instruction
system.switch_cpus0.op_class::FloatSqrt             0                       # Class of executed instruction
system.switch_cpus0.op_class::SimdAdd               0                       # Class of executed instruction
system.switch_cpus0.op_class::SimdAddAcc            0                       # Class of executed instruction
system.switch_cpus0.op_class::SimdAlu               0                       # Class of executed instruction
system.switch_cpus0.op_class::SimdCmp               0                       # Class of executed instruction
system.switch_cpus0.op_class::SimdCvt               0                       # Class of executed instruction
system.switch_cpus0.op_class::SimdMisc              0                       # Class of executed instruction
system.switch_cpus0.op_class::SimdMult              0                       # Class of executed instruction
system.switch_cpus0.op_class::SimdMultAcc            0                       # Class of executed instruction
system.switch_cpus0.op_class::SimdShift             0                       # Class of executed instruction
system.switch_cpus0.op_class::SimdShiftAcc            0                       # Class of executed instruction
system.switch_cpus0.op_class::SimdDiv               0                       # Class of executed instruction
system.switch_cpus0.op_class::SimdSqrt              0                       # Class of executed instruction
system.switch_cpus0.op_class::SimdFloatAdd            0                       # Class of executed instruction
system.switch_cpus0.op_class::SimdFloatAlu            0                       # Class of executed instruction
system.switch_cpus0.op_class::SimdFloatCmp            0                       # Class of executed instruction
system.switch_cpus0.op_class::SimdFloatCvt            0                       # Class of executed instruction
system.switch_cpus0.op_class::SimdFloatDiv            0                       # Class of executed instruction
system.switch_cpus0.op_class::SimdFloatMisc            0                       # Class of executed instruction
system.switch_cpus0.op_class::SimdFloatMult            0                       # Class of executed instruction
system.switch_cpus0.op_class::SimdFloatMultAcc            0                       # Class of executed instruction
system.switch_cpus0.op_class::SimdFloatSqrt            0                       # Class of executed instruction
system.switch_cpus0.op_class::SimdReduceAdd            0                       # Class of executed instruction
system.switch_cpus0.op_class::SimdReduceAlu            0                       # Class of executed instruction
system.switch_cpus0.op_class::SimdReduceCmp            0                       # Class of executed instruction
system.switch_cpus0.op_class::SimdFloatReduceAdd            0                       # Class of executed instruction
system.switch_cpus0.op_class::SimdFloatReduceCmp            0                       # Class of executed instruction
system.switch_cpus0.op_class::SimdAes               0                       # Class of executed instruction
system.switch_cpus0.op_class::SimdAesMix            0                       # Class of executed instruction
system.switch_cpus0.op_class::SimdSha1Hash            0                       # Class of executed instruction
system.switch_cpus0.op_class::SimdSha1Hash2            0                       # Class of executed instruction
system.switch_cpus0.op_class::SimdSha256Hash            0                       # Class of executed instruction
system.switch_cpus0.op_class::SimdSha256Hash2            0                       # Class of executed instruction
system.switch_cpus0.op_class::SimdShaSigma2            0                       # Class of executed instruction
system.switch_cpus0.op_class::SimdShaSigma3            0                       # Class of executed instruction
system.switch_cpus0.op_class::SimdPredAlu            0                       # Class of executed instruction
system.switch_cpus0.op_class::MemRead               0                       # Class of executed instruction
system.switch_cpus0.op_class::MemWrite              0                       # Class of executed instruction
system.switch_cpus0.op_class::FloatMemRead            0                       # Class of executed instruction
system.switch_cpus0.op_class::FloatMemWrite            0                       # Class of executed instruction
system.switch_cpus0.op_class::IprAccess             0                       # Class of executed instruction
system.switch_cpus0.op_class::InstPrefetch            0                       # Class of executed instruction
system.switch_cpus0.op_class::total                 0                       # Class of executed instruction
system.switch_cpus1.committedInsts                  0                       # Number of instructions committed
system.switch_cpus1.committedOps                    0                       # Number of ops (including micro ops) committed
system.switch_cpus1.dtb.rdAccesses                  0                       # TLB accesses on read requests
system.switch_cpus1.dtb.rdMisses                    0                       # TLB misses on read requests
system.switch_cpus1.dtb.wrAccesses                  0                       # TLB accesses on write requests
system.switch_cpus1.dtb.wrMisses                    0                       # TLB misses on write requests
system.switch_cpus1.idle_fraction                   1                       # Percentage of idle cycles
system.switch_cpus1.itb.rdAccesses                  0                       # TLB accesses on read requests
system.switch_cpus1.itb.rdMisses                    0                       # TLB misses on read requests
system.switch_cpus1.itb.wrAccesses                  0                       # TLB accesses on write requests
system.switch_cpus1.itb.wrMisses                    0                       # TLB misses on write requests
system.switch_cpus1.kern.inst.arm                   0                       # number of arm instructions executed
system.switch_cpus1.kern.inst.quiesce               0                       # number of quiesce instructions executed
system.switch_cpus1.not_idle_fraction               0                       # Percentage of non-idle cycles
system.switch_cpus1.numCycles                       0                       # number of cpu cycles simulated
system.switch_cpus1.numWorkItemsCompleted            0                       # number of work items this cpu completed
system.switch_cpus1.numWorkItemsStarted             0                       # number of work items this cpu started
system.switch_cpus1.num_busy_cycles                 0                       # Number of busy cycles
system.switch_cpus1.num_conditional_control_insts            0                       # number of instructions that are conditional controls
system.switch_cpus1.num_fp_alu_accesses             0                       # Number of float alu accesses
system.switch_cpus1.num_fp_insts                    0                       # number of float instructions
system.switch_cpus1.num_fp_register_reads            0                       # number of times the floating registers were read
system.switch_cpus1.num_fp_register_writes            0                       # number of times the floating registers were written
system.switch_cpus1.num_func_calls                  0                       # number of times a function call or return occured
system.switch_cpus1.num_idle_cycles                 0                       # Number of idle cycles
system.switch_cpus1.num_int_alu_accesses            0                       # Number of integer alu accesses
system.switch_cpus1.num_int_insts                   0                       # number of integer instructions
system.switch_cpus1.num_int_register_reads            0                       # number of times the integer registers were read
system.switch_cpus1.num_int_register_writes            0                       # number of times the integer registers were written
system.switch_cpus1.num_load_insts                  0                       # Number of load instructions
system.switch_cpus1.num_mem_refs                    0                       # number of memory refs
system.switch_cpus1.num_store_insts                 0                       # Number of store instructions
system.switch_cpus1.num_vec_alu_accesses            0                       # Number of vector alu accesses
system.switch_cpus1.num_vec_insts                   0                       # number of vector instructions
system.switch_cpus1.num_vec_register_reads            0                       # number of times the vector registers were read
system.switch_cpus1.num_vec_register_writes            0                       # number of times the vector registers were written
system.switch_cpus1.op_class::No_OpClass            0                       # Class of executed instruction
system.switch_cpus1.op_class::IntAlu                0                       # Class of executed instruction
system.switch_cpus1.op_class::IntMult               0                       # Class of executed instruction
system.switch_cpus1.op_class::IntDiv                0                       # Class of executed instruction
system.switch_cpus1.op_class::FloatAdd              0                       # Class of executed instruction
system.switch_cpus1.op_class::FloatCmp              0                       # Class of executed instruction
system.switch_cpus1.op_class::FloatCvt              0                       # Class of executed instruction
system.switch_cpus1.op_class::FloatMult             0                       # Class of executed instruction
system.switch_cpus1.op_class::FloatMultAcc            0                       # Class of executed instruction
system.switch_cpus1.op_class::FloatDiv              0                       # Class of executed instruction
system.switch_cpus1.op_class::FloatMisc             0                       # Class of executed instruction
system.switch_cpus1.op_class::FloatSqrt             0                       # Class of executed instruction
system.switch_cpus1.op_class::SimdAdd               0                       # Class of executed instruction
system.switch_cpus1.op_class::SimdAddAcc            0                       # Class of executed instruction
system.switch_cpus1.op_class::SimdAlu               0                       # Class of executed instruction
system.switch_cpus1.op_class::SimdCmp               0                       # Class of executed instruction
system.switch_cpus1.op_class::SimdCvt               0                       # Class of executed instruction
system.switch_cpus1.op_class::SimdMisc              0                       # Class of executed instruction
system.switch_cpus1.op_class::SimdMult              0                       # Class of executed instruction
system.switch_cpus1.op_class::SimdMultAcc            0                       # Class of executed instruction
system.switch_cpus1.op_class::SimdShift             0                       # Class of executed instruction
system.switch_cpus1.op_class::SimdShiftAcc            0                       # Class of executed instruction
system.switch_cpus1.op_class::SimdDiv               0                       # Class of executed instruction
system.switch_cpus1.op_class::SimdSqrt              0                       # Class of executed instruction
system.switch_cpus1.op_class::SimdFloatAdd            0                       # Class of executed instruction
system.switch_cpus1.op_class::SimdFloatAlu            0                       # Class of executed instruction
system.switch_cpus1.op_class::SimdFloatCmp            0                       # Class of executed instruction
system.switch_cpus1.op_class::SimdFloatCvt            0                       # Class of executed instruction
system.switch_cpus1.op_class::SimdFloatDiv            0                       # Class of executed instruction
system.switch_cpus1.op_class::SimdFloatMisc            0                       # Class of executed instruction
system.switch_cpus1.op_class::SimdFloatMult            0                       # Class of executed instruction
system.switch_cpus1.op_class::SimdFloatMultAcc            0                       # Class of executed instruction
system.switch_cpus1.op_class::SimdFloatSqrt            0                       # Class of executed instruction
system.switch_cpus1.op_class::SimdReduceAdd            0                       # Class of executed instruction
system.switch_cpus1.op_class::SimdReduceAlu            0                       # Class of executed instruction
system.switch_cpus1.op_class::SimdReduceCmp            0                       # Class of executed instruction
system.switch_cpus1.op_class::SimdFloatReduceAdd            0                       # Class of executed instruction
system.switch_cpus1.op_class::SimdFloatReduceCmp            0                       # Class of executed instruction
system.switch_cpus1.op_class::SimdAes               0                       # Class of executed instruction
system.switch_cpus1.op_class::SimdAesMix            0                       # Class of executed instruction
system.switch_cpus1.op_class::SimdSha1Hash            0                       # Class of executed instruction
system.switch_cpus1.op_class::SimdSha1Hash2            0                       # Class of executed instruction
system.switch_cpus1.op_class::SimdSha256Hash            0                       # Class of executed instruction
system.switch_cpus1.op_class::SimdSha256Hash2            0                       # Class of executed instruction
system.switch_cpus1.op_class::SimdShaSigma2            0                       # Class of executed instruction
system.switch_cpus1.op_class::SimdShaSigma3            0                       # Class of executed instruction
system.switch_cpus1.op_class::SimdPredAlu            0                       # Class of executed instruction
system.switch_cpus1.op_class::MemRead               0                       # Class of executed instruction
system.switch_cpus1.op_class::MemWrite              0                       # Class of executed instruction
system.switch_cpus1.op_class::FloatMemRead            0                       # Class of executed instruction
system.switch_cpus1.op_class::FloatMemWrite            0                       # Class of executed instruction
system.switch_cpus1.op_class::IprAccess             0                       # Class of executed instruction
system.switch_cpus1.op_class::InstPrefetch            0                       # Class of executed instruction
system.switch_cpus1.op_class::total                 0                       # Class of executed instruction
system.switch_cpus2.committedInsts                  0                       # Number of instructions committed
system.switch_cpus2.committedOps                    0                       # Number of ops (including micro ops) committed
system.switch_cpus2.dtb.rdAccesses                  0                       # TLB accesses on read requests
system.switch_cpus2.dtb.rdMisses                    0                       # TLB misses on read requests
system.switch_cpus2.dtb.wrAccesses                  0                       # TLB accesses on write requests
system.switch_cpus2.dtb.wrMisses                    0                       # TLB misses on write requests
system.switch_cpus2.idle_fraction                   1                       # Percentage of idle cycles
system.switch_cpus2.itb.rdAccesses                  0                       # TLB accesses on read requests
system.switch_cpus2.itb.rdMisses                    0                       # TLB misses on read requests
system.switch_cpus2.itb.wrAccesses                  0                       # TLB accesses on write requests
system.switch_cpus2.itb.wrMisses                    0                       # TLB misses on write requests
system.switch_cpus2.kern.inst.arm                   0                       # number of arm instructions executed
system.switch_cpus2.kern.inst.quiesce               0                       # number of quiesce instructions executed
system.switch_cpus2.not_idle_fraction               0                       # Percentage of non-idle cycles
system.switch_cpus2.numCycles                       0                       # number of cpu cycles simulated
system.switch_cpus2.numWorkItemsCompleted            0                       # number of work items this cpu completed
system.switch_cpus2.numWorkItemsStarted             0                       # number of work items this cpu started
system.switch_cpus2.num_busy_cycles                 0                       # Number of busy cycles
system.switch_cpus2.num_conditional_control_insts            0                       # number of instructions that are conditional controls
system.switch_cpus2.num_fp_alu_accesses             0                       # Number of float alu accesses
system.switch_cpus2.num_fp_insts                    0                       # number of float instructions
system.switch_cpus2.num_fp_register_reads            0                       # number of times the floating registers were read
system.switch_cpus2.num_fp_register_writes            0                       # number of times the floating registers were written
system.switch_cpus2.num_func_calls                  0                       # number of times a function call or return occured
system.switch_cpus2.num_idle_cycles                 0                       # Number of idle cycles
system.switch_cpus2.num_int_alu_accesses            0                       # Number of integer alu accesses
system.switch_cpus2.num_int_insts                   0                       # number of integer instructions
system.switch_cpus2.num_int_register_reads            0                       # number of times the integer registers were read
system.switch_cpus2.num_int_register_writes            0                       # number of times the integer registers were written
system.switch_cpus2.num_load_insts                  0                       # Number of load instructions
system.switch_cpus2.num_mem_refs                    0                       # number of memory refs
system.switch_cpus2.num_store_insts                 0                       # Number of store instructions
system.switch_cpus2.num_vec_alu_accesses            0                       # Number of vector alu accesses
system.switch_cpus2.num_vec_insts                   0                       # number of vector instructions
system.switch_cpus2.num_vec_register_reads            0                       # number of times the vector registers were read
system.switch_cpus2.num_vec_register_writes            0                       # number of times the vector registers were written
system.switch_cpus2.op_class::No_OpClass            0                       # Class of executed instruction
system.switch_cpus2.op_class::IntAlu                0                       # Class of executed instruction
system.switch_cpus2.op_class::IntMult               0                       # Class of executed instruction
system.switch_cpus2.op_class::IntDiv                0                       # Class of executed instruction
system.switch_cpus2.op_class::FloatAdd              0                       # Class of executed instruction
system.switch_cpus2.op_class::FloatCmp              0                       # Class of executed instruction
system.switch_cpus2.op_class::FloatCvt              0                       # Class of executed instruction
system.switch_cpus2.op_class::FloatMult             0                       # Class of executed instruction
system.switch_cpus2.op_class::FloatMultAcc            0                       # Class of executed instruction
system.switch_cpus2.op_class::FloatDiv              0                       # Class of executed instruction
system.switch_cpus2.op_class::FloatMisc             0                       # Class of executed instruction
system.switch_cpus2.op_class::FloatSqrt             0                       # Class of executed instruction
system.switch_cpus2.op_class::SimdAdd               0                       # Class of executed instruction
system.switch_cpus2.op_class::SimdAddAcc            0                       # Class of executed instruction
system.switch_cpus2.op_class::SimdAlu               0                       # Class of executed instruction
system.switch_cpus2.op_class::SimdCmp               0                       # Class of executed instruction
system.switch_cpus2.op_class::SimdCvt               0                       # Class of executed instruction
system.switch_cpus2.op_class::SimdMisc              0                       # Class of executed instruction
system.switch_cpus2.op_class::SimdMult              0                       # Class of executed instruction
system.switch_cpus2.op_class::SimdMultAcc            0                       # Class of executed instruction
system.switch_cpus2.op_class::SimdShift             0                       # Class of executed instruction
system.switch_cpus2.op_class::SimdShiftAcc            0                       # Class of executed instruction
system.switch_cpus2.op_class::SimdDiv               0                       # Class of executed instruction
system.switch_cpus2.op_class::SimdSqrt              0                       # Class of executed instruction
system.switch_cpus2.op_class::SimdFloatAdd            0                       # Class of executed instruction
system.switch_cpus2.op_class::SimdFloatAlu            0                       # Class of executed instruction
system.switch_cpus2.op_class::SimdFloatCmp            0                       # Class of executed instruction
system.switch_cpus2.op_class::SimdFloatCvt            0                       # Class of executed instruction
system.switch_cpus2.op_class::SimdFloatDiv            0                       # Class of executed instruction
system.switch_cpus2.op_class::SimdFloatMisc            0                       # Class of executed instruction
system.switch_cpus2.op_class::SimdFloatMult            0                       # Class of executed instruction
system.switch_cpus2.op_class::SimdFloatMultAcc            0                       # Class of executed instruction
system.switch_cpus2.op_class::SimdFloatSqrt            0                       # Class of executed instruction
system.switch_cpus2.op_class::SimdReduceAdd            0                       # Class of executed instruction
system.switch_cpus2.op_class::SimdReduceAlu            0                       # Class of executed instruction
system.switch_cpus2.op_class::SimdReduceCmp            0                       # Class of executed instruction
system.switch_cpus2.op_class::SimdFloatReduceAdd            0                       # Class of executed instruction
system.switch_cpus2.op_class::SimdFloatReduceCmp            0                       # Class of executed instruction
system.switch_cpus2.op_class::SimdAes               0                       # Class of executed instruction
system.switch_cpus2.op_class::SimdAesMix            0                       # Class of executed instruction
system.switch_cpus2.op_class::SimdSha1Hash            0                       # Class of executed instruction
system.switch_cpus2.op_class::SimdSha1Hash2            0                       # Class of executed instruction
system.switch_cpus2.op_class::SimdSha256Hash            0                       # Class of executed instruction
system.switch_cpus2.op_class::SimdSha256Hash2            0                       # Class of executed instruction
system.switch_cpus2.op_class::SimdShaSigma2            0                       # Class of executed instruction
system.switch_cpus2.op_class::SimdShaSigma3            0                       # Class of executed instruction
system.switch_cpus2.op_class::SimdPredAlu            0                       # Class of executed instruction
system.switch_cpus2.op_class::MemRead               0                       # Class of executed instruction
system.switch_cpus2.op_class::MemWrite              0                       # Class of executed instruction
system.switch_cpus2.op_class::FloatMemRead            0                       # Class of executed instruction
system.switch_cpus2.op_class::FloatMemWrite            0                       # Class of executed instruction
system.switch_cpus2.op_class::IprAccess             0                       # Class of executed instruction
system.switch_cpus2.op_class::InstPrefetch            0                       # Class of executed instruction
system.switch_cpus2.op_class::total                 0                       # Class of executed instruction
system.switch_cpus3.committedInsts                  0                       # Number of instructions committed
system.switch_cpus3.committedOps                    0                       # Number of ops (including micro ops) committed
system.switch_cpus3.dtb.rdAccesses                  0                       # TLB accesses on read requests
system.switch_cpus3.dtb.rdMisses                    0                       # TLB misses on read requests
system.switch_cpus3.dtb.wrAccesses                  0                       # TLB accesses on write requests
system.switch_cpus3.dtb.wrMisses                    0                       # TLB misses on write requests
system.switch_cpus3.idle_fraction                   1                       # Percentage of idle cycles
system.switch_cpus3.itb.rdAccesses                  0                       # TLB accesses on read requests
system.switch_cpus3.itb.rdMisses                    0                       # TLB misses on read requests
system.switch_cpus3.itb.wrAccesses                  0                       # TLB accesses on write requests
system.switch_cpus3.itb.wrMisses                    0                       # TLB misses on write requests
system.switch_cpus3.kern.inst.arm                   0                       # number of arm instructions executed
system.switch_cpus3.kern.inst.quiesce               0                       # number of quiesce instructions executed
system.switch_cpus3.not_idle_fraction               0                       # Percentage of non-idle cycles
system.switch_cpus3.numCycles                       0                       # number of cpu cycles simulated
system.switch_cpus3.numWorkItemsCompleted            0                       # number of work items this cpu completed
system.switch_cpus3.numWorkItemsStarted             0                       # number of work items this cpu started
system.switch_cpus3.num_busy_cycles                 0                       # Number of busy cycles
system.switch_cpus3.num_conditional_control_insts            0                       # number of instructions that are conditional controls
system.switch_cpus3.num_fp_alu_accesses             0                       # Number of float alu accesses
system.switch_cpus3.num_fp_insts                    0                       # number of float instructions
system.switch_cpus3.num_fp_register_reads            0                       # number of times the floating registers were read
system.switch_cpus3.num_fp_register_writes            0                       # number of times the floating registers were written
system.switch_cpus3.num_func_calls                  0                       # number of times a function call or return occured
system.switch_cpus3.num_idle_cycles                 0                       # Number of idle cycles
system.switch_cpus3.num_int_alu_accesses            0                       # Number of integer alu accesses
system.switch_cpus3.num_int_insts                   0                       # number of integer instructions
system.switch_cpus3.num_int_register_reads            0                       # number of times the integer registers were read
system.switch_cpus3.num_int_register_writes            0                       # number of times the integer registers were written
system.switch_cpus3.num_load_insts                  0                       # Number of load instructions
system.switch_cpus3.num_mem_refs                    0                       # number of memory refs
system.switch_cpus3.num_store_insts                 0                       # Number of store instructions
system.switch_cpus3.num_vec_alu_accesses            0                       # Number of vector alu accesses
system.switch_cpus3.num_vec_insts                   0                       # number of vector instructions
system.switch_cpus3.num_vec_register_reads            0                       # number of times the vector registers were read
system.switch_cpus3.num_vec_register_writes            0                       # number of times the vector registers were written
system.switch_cpus3.op_class::No_OpClass            0                       # Class of executed instruction
system.switch_cpus3.op_class::IntAlu                0                       # Class of executed instruction
system.switch_cpus3.op_class::IntMult               0                       # Class of executed instruction
system.switch_cpus3.op_class::IntDiv                0                       # Class of executed instruction
system.switch_cpus3.op_class::FloatAdd              0                       # Class of executed instruction
system.switch_cpus3.op_class::FloatCmp              0                       # Class of executed instruction
system.switch_cpus3.op_class::FloatCvt              0                       # Class of executed instruction
system.switch_cpus3.op_class::FloatMult             0                       # Class of executed instruction
system.switch_cpus3.op_class::FloatMultAcc            0                       # Class of executed instruction
system.switch_cpus3.op_class::FloatDiv              0                       # Class of executed instruction
system.switch_cpus3.op_class::FloatMisc             0                       # Class of executed instruction
system.switch_cpus3.op_class::FloatSqrt             0                       # Class of executed instruction
system.switch_cpus3.op_class::SimdAdd               0                       # Class of executed instruction
system.switch_cpus3.op_class::SimdAddAcc            0                       # Class of executed instruction
system.switch_cpus3.op_class::SimdAlu               0                       # Class of executed instruction
system.switch_cpus3.op_class::SimdCmp               0                       # Class of executed instruction
system.switch_cpus3.op_class::SimdCvt               0                       # Class of executed instruction
system.switch_cpus3.op_class::SimdMisc              0                       # Class of executed instruction
system.switch_cpus3.op_class::SimdMult              0                       # Class of executed instruction
system.switch_cpus3.op_class::SimdMultAcc            0                       # Class of executed instruction
system.switch_cpus3.op_class::SimdShift             0                       # Class of executed instruction
system.switch_cpus3.op_class::SimdShiftAcc            0                       # Class of executed instruction
system.switch_cpus3.op_class::SimdDiv               0                       # Class of executed instruction
system.switch_cpus3.op_class::SimdSqrt              0                       # Class of executed instruction
system.switch_cpus3.op_class::SimdFloatAdd            0                       # Class of executed instruction
system.switch_cpus3.op_class::SimdFloatAlu            0                       # Class of executed instruction
system.switch_cpus3.op_class::SimdFloatCmp            0                       # Class of executed instruction
system.switch_cpus3.op_class::SimdFloatCvt            0                       # Class of executed instruction
system.switch_cpus3.op_class::SimdFloatDiv            0                       # Class of executed instruction
system.switch_cpus3.op_class::SimdFloatMisc            0                       # Class of executed instruction
system.switch_cpus3.op_class::SimdFloatMult            0                       # Class of executed instruction
system.switch_cpus3.op_class::SimdFloatMultAcc            0                       # Class of executed instruction
system.switch_cpus3.op_class::SimdFloatSqrt            0                       # Class of executed instruction
system.switch_cpus3.op_class::SimdReduceAdd            0                       # Class of executed instruction
system.switch_cpus3.op_class::SimdReduceAlu            0                       # Class of executed instruction
system.switch_cpus3.op_class::SimdReduceCmp            0                       # Class of executed instruction
system.switch_cpus3.op_class::SimdFloatReduceAdd            0                       # Class of executed instruction
system.switch_cpus3.op_class::SimdFloatReduceCmp            0                       # Class of executed instruction
system.switch_cpus3.op_class::SimdAes               0                       # Class of executed instruction
system.switch_cpus3.op_class::SimdAesMix            0                       # Class of executed instruction
system.switch_cpus3.op_class::SimdSha1Hash            0                       # Class of executed instruction
system.switch_cpus3.op_class::SimdSha1Hash2            0                       # Class of executed instruction
system.switch_cpus3.op_class::SimdSha256Hash            0                       # Class of executed instruction
system.switch_cpus3.op_class::SimdSha256Hash2            0                       # Class of executed instruction
system.switch_cpus3.op_class::SimdShaSigma2            0                       # Class of executed instruction
system.switch_cpus3.op_class::SimdShaSigma3            0                       # Class of executed instruction
system.switch_cpus3.op_class::SimdPredAlu            0                       # Class of executed instruction
system.switch_cpus3.op_class::MemRead               0                       # Class of executed instruction
system.switch_cpus3.op_class::MemWrite              0                       # Class of executed instruction
system.switch_cpus3.op_class::FloatMemRead            0                       # Class of executed instruction
system.switch_cpus3.op_class::FloatMemWrite            0                       # Class of executed instruction
system.switch_cpus3.op_class::IprAccess             0                       # Class of executed instruction
system.switch_cpus3.op_class::InstPrefetch            0                       # Class of executed instruction
system.switch_cpus3.op_class::total                 0                       # Class of executed instruction
system.cpu_clk_domain.clock                       500                       # Clock period in ticks
system.voltage_domain.voltage                       1                       # Voltage in Volts
system.clk_domain.clock                          1000                       # Clock period in ticks
system.pc.fake_com_4.power_state.pwrStateResidencyTicks::UNDEFINED 106824727586000                       # Cumulative time (in ticks) in various power states
system.pc.fake_com_2.power_state.pwrStateResidencyTicks::UNDEFINED 106824727586000                       # Cumulative time (in ticks) in various power states
system.pc.fake_com_3.power_state.pwrStateResidencyTicks::UNDEFINED 106824727586000                       # Cumulative time (in ticks) in various power states
system.pc.south_bridge.io_apic.power_state.pwrStateResidencyTicks::UNDEFINED 106824727586000                       # Cumulative time (in ticks) in various power states
system.pc.south_bridge.pic1.power_state.pwrStateResidencyTicks::UNDEFINED 106824727586000                       # Cumulative time (in ticks) in various power states
system.pc.south_bridge.pic2.power_state.pwrStateResidencyTicks::UNDEFINED 106824727586000                       # Cumulative time (in ticks) in various power states
system.pc.south_bridge.dma1.power_state.pwrStateResidencyTicks::UNDEFINED 106824727586000                       # Cumulative time (in ticks) in various power states
system.pc.south_bridge.speaker.power_state.pwrStateResidencyTicks::UNDEFINED 106824727586000                       # Cumulative time (in ticks) in various power states
system.pc.south_bridge.keyboard.power_state.pwrStateResidencyTicks::UNDEFINED 106824727586000                       # Cumulative time (in ticks) in various power states
system.pc.south_bridge.ide.power_state.pwrStateResidencyTicks::UNDEFINED 106824727586000                       # Cumulative time (in ticks) in various power states
system.pc.south_bridge.pit.power_state.pwrStateResidencyTicks::UNDEFINED 106824727586000                       # Cumulative time (in ticks) in various power states
system.pc.south_bridge.cmos.power_state.pwrStateResidencyTicks::UNDEFINED 106824727586000                       # Cumulative time (in ticks) in various power states
system.pc.i_dont_exist2.power_state.pwrStateResidencyTicks::UNDEFINED 106824727586000                       # Cumulative time (in ticks) in various power states
system.pc.i_dont_exist1.power_state.pwrStateResidencyTicks::UNDEFINED 106824727586000                       # Cumulative time (in ticks) in various power states
system.pc.com_1.power_state.pwrStateResidencyTicks::UNDEFINED 106824727586000                       # Cumulative time (in ticks) in various power states
system.pc.fake_floppy.power_state.pwrStateResidencyTicks::UNDEFINED 106824727586000                       # Cumulative time (in ticks) in various power states
system.pc.behind_pci.power_state.pwrStateResidencyTicks::UNDEFINED 106824727586000                       # Cumulative time (in ticks) in various power states
system.pc.pci_host.power_state.pwrStateResidencyTicks::UNDEFINED 106824727586000                       # Cumulative time (in ticks) in various power states
system.switch_cpus2.dtb.walker.power_state.pwrStateResidencyTicks::UNDEFINED 106824727586000                       # Cumulative time (in ticks) in various power states
system.switch_cpus2.itb.walker.power_state.pwrStateResidencyTicks::UNDEFINED 106824727586000                       # Cumulative time (in ticks) in various power states
system.switch_cpus2.power_state.numTransitions            1                       # Number of power state transitions
system.switch_cpus2.power_state.pwrStateResidencyTicks::OFF 106824727586000                       # Cumulative time (in ticks) in various power states
system.switch_cpus3.dtb.walker.power_state.pwrStateResidencyTicks::UNDEFINED 106824727586000                       # Cumulative time (in ticks) in various power states
system.switch_cpus3.itb.walker.power_state.pwrStateResidencyTicks::UNDEFINED 106824727586000                       # Cumulative time (in ticks) in various power states
system.switch_cpus3.power_state.numTransitions            1                       # Number of power state transitions
system.switch_cpus3.power_state.pwrStateResidencyTicks::OFF 106824727586000                       # Cumulative time (in ticks) in various power states
system.switch_cpus0.dtb.walker.power_state.pwrStateResidencyTicks::UNDEFINED 106824727586000                       # Cumulative time (in ticks) in various power states
system.switch_cpus0.itb.walker.power_state.pwrStateResidencyTicks::UNDEFINED 106824727586000                       # Cumulative time (in ticks) in various power states
system.switch_cpus0.power_state.numTransitions            1                       # Number of power state transitions
system.switch_cpus0.power_state.pwrStateResidencyTicks::OFF 106824727586000                       # Cumulative time (in ticks) in various power states
system.switch_cpus1.dtb.walker.power_state.pwrStateResidencyTicks::UNDEFINED 106824727586000                       # Cumulative time (in ticks) in various power states
system.switch_cpus1.itb.walker.power_state.pwrStateResidencyTicks::UNDEFINED 106824727586000                       # Cumulative time (in ticks) in various power states
system.switch_cpus1.power_state.numTransitions            1                       # Number of power state transitions
system.switch_cpus1.power_state.pwrStateResidencyTicks::OFF 106824727586000                       # Cumulative time (in ticks) in various power states
system.sys_port_proxy.power_state.pwrStateResidencyTicks::UNDEFINED 106824727586000                       # Cumulative time (in ticks) in various power states
system.cpu2.dtb.walker.power_state.pwrStateResidencyTicks::UNDEFINED 106824727586000                       # Cumulative time (in ticks) in various power states
system.cpu2.interrupts.clk_domain.clock          8000                       # Clock period in ticks
system.cpu2.itb.walker.power_state.pwrStateResidencyTicks::UNDEFINED 106824727586000                       # Cumulative time (in ticks) in various power states
system.cpu2.power_state.pwrStateResidencyTicks::ON 106824727586000                       # Cumulative time (in ticks) in various power states
system.cpu3.dtb.walker.power_state.pwrStateResidencyTicks::UNDEFINED 106824727586000                       # Cumulative time (in ticks) in various power states
system.cpu3.interrupts.clk_domain.clock          8000                       # Clock period in ticks
system.cpu3.itb.walker.power_state.pwrStateResidencyTicks::UNDEFINED 106824727586000                       # Cumulative time (in ticks) in various power states
system.cpu3.power_state.pwrStateResidencyTicks::ON 106824727586000                       # Cumulative time (in ticks) in various power states
system.cpu0.dtb.walker.power_state.pwrStateResidencyTicks::UNDEFINED 106824727586000                       # Cumulative time (in ticks) in various power states
system.cpu0.interrupts.clk_domain.clock          8000                       # Clock period in ticks
system.cpu0.itb.walker.power_state.pwrStateResidencyTicks::UNDEFINED 106824727586000                       # Cumulative time (in ticks) in various power states
system.cpu0.power_state.pwrStateResidencyTicks::ON 106824727586000                       # Cumulative time (in ticks) in various power states
system.cpu1.dtb.walker.power_state.pwrStateResidencyTicks::UNDEFINED 106824727586000                       # Cumulative time (in ticks) in various power states
system.cpu1.interrupts.clk_domain.clock          8000                       # Clock period in ticks
system.cpu1.itb.walker.power_state.pwrStateResidencyTicks::UNDEFINED 106824727586000                       # Cumulative time (in ticks) in various power states
system.cpu1.power_state.pwrStateResidencyTicks::ON 106824727586000                       # Cumulative time (in ticks) in various power states
system.ruby.l1_cntrl0.power_state.pwrStateResidencyTicks::UNDEFINED 106824727586000                       # Cumulative time (in ticks) in various power states
system.ruby.l1_cntrl0.sequencer.power_state.pwrStateResidencyTicks::UNDEFINED 106824727586000                       # Cumulative time (in ticks) in various power states
system.ruby.l1_cntrl1.power_state.pwrStateResidencyTicks::UNDEFINED 106824727586000                       # Cumulative time (in ticks) in various power states
system.ruby.l1_cntrl1.sequencer.power_state.pwrStateResidencyTicks::UNDEFINED 106824727586000                       # Cumulative time (in ticks) in various power states
system.ruby.l1_cntrl2.power_state.pwrStateResidencyTicks::UNDEFINED 106824727586000                       # Cumulative time (in ticks) in various power states
system.ruby.l1_cntrl2.sequencer.power_state.pwrStateResidencyTicks::UNDEFINED 106824727586000                       # Cumulative time (in ticks) in various power states
system.ruby.l1_cntrl3.power_state.pwrStateResidencyTicks::UNDEFINED 106824727586000                       # Cumulative time (in ticks) in various power states
system.ruby.l1_cntrl3.sequencer.power_state.pwrStateResidencyTicks::UNDEFINED 106824727586000                       # Cumulative time (in ticks) in various power states
system.ruby.clk_domain.clock                      500                       # Clock period in ticks
system.ruby.dma_cntrl0.power_state.pwrStateResidencyTicks::UNDEFINED 106824727586000                       # Cumulative time (in ticks) in various power states
system.ruby.dma_cntrl0.dma_sequencer.power_state.pwrStateResidencyTicks::UNDEFINED 106824727586000                       # Cumulative time (in ticks) in various power states
system.ruby.network.netifs8.power_state.pwrStateResidencyTicks::UNDEFINED 106824727586000                       # Cumulative time (in ticks) in various power states
system.ruby.network.netifs9.power_state.pwrStateResidencyTicks::UNDEFINED 106824727586000                       # Cumulative time (in ticks) in various power states
system.ruby.network.netifs6.power_state.pwrStateResidencyTicks::UNDEFINED 106824727586000                       # Cumulative time (in ticks) in various power states
system.ruby.network.netifs7.power_state.pwrStateResidencyTicks::UNDEFINED 106824727586000                       # Cumulative time (in ticks) in various power states
system.ruby.network.netifs4.power_state.pwrStateResidencyTicks::UNDEFINED 106824727586000                       # Cumulative time (in ticks) in various power states
system.ruby.network.netifs5.power_state.pwrStateResidencyTicks::UNDEFINED 106824727586000                       # Cumulative time (in ticks) in various power states
system.ruby.network.netifs2.power_state.pwrStateResidencyTicks::UNDEFINED 106824727586000                       # Cumulative time (in ticks) in various power states
system.ruby.network.netifs3.power_state.pwrStateResidencyTicks::UNDEFINED 106824727586000                       # Cumulative time (in ticks) in various power states
system.ruby.network.netifs0.power_state.pwrStateResidencyTicks::UNDEFINED 106824727586000                       # Cumulative time (in ticks) in various power states
system.ruby.network.netifs1.power_state.pwrStateResidencyTicks::UNDEFINED 106824727586000                       # Cumulative time (in ticks) in various power states
system.ruby.network.power_state.pwrStateResidencyTicks::UNDEFINED 106824727586000                       # Cumulative time (in ticks) in various power states
system.ruby.network.int_links1.credit_link.power_state.pwrStateResidencyTicks::UNDEFINED 106824727586000                       # Cumulative time (in ticks) in various power states
system.ruby.network.int_links1.network_link.power_state.pwrStateResidencyTicks::UNDEFINED 106824727586000                       # Cumulative time (in ticks) in various power states
system.ruby.network.int_links0.credit_link.power_state.pwrStateResidencyTicks::UNDEFINED 106824727586000                       # Cumulative time (in ticks) in various power states
system.ruby.network.int_links0.network_link.power_state.pwrStateResidencyTicks::UNDEFINED 106824727586000                       # Cumulative time (in ticks) in various power states
system.ruby.network.int_links3.credit_link.power_state.pwrStateResidencyTicks::UNDEFINED 106824727586000                       # Cumulative time (in ticks) in various power states
system.ruby.network.int_links3.network_link.power_state.pwrStateResidencyTicks::UNDEFINED 106824727586000                       # Cumulative time (in ticks) in various power states
system.ruby.network.int_links2.credit_link.power_state.pwrStateResidencyTicks::UNDEFINED 106824727586000                       # Cumulative time (in ticks) in various power states
system.ruby.network.int_links2.network_link.power_state.pwrStateResidencyTicks::UNDEFINED 106824727586000                       # Cumulative time (in ticks) in various power states
system.ruby.network.int_links5.credit_link.power_state.pwrStateResidencyTicks::UNDEFINED 106824727586000                       # Cumulative time (in ticks) in various power states
system.ruby.network.int_links5.network_link.power_state.pwrStateResidencyTicks::UNDEFINED 106824727586000                       # Cumulative time (in ticks) in various power states
system.ruby.network.int_links4.credit_link.power_state.pwrStateResidencyTicks::UNDEFINED 106824727586000                       # Cumulative time (in ticks) in various power states
system.ruby.network.int_links4.network_link.power_state.pwrStateResidencyTicks::UNDEFINED 106824727586000                       # Cumulative time (in ticks) in various power states
system.ruby.network.int_links7.credit_link.power_state.pwrStateResidencyTicks::UNDEFINED 106824727586000                       # Cumulative time (in ticks) in various power states
system.ruby.network.int_links7.network_link.power_state.pwrStateResidencyTicks::UNDEFINED 106824727586000                       # Cumulative time (in ticks) in various power states
system.ruby.network.int_links6.credit_link.power_state.pwrStateResidencyTicks::UNDEFINED 106824727586000                       # Cumulative time (in ticks) in various power states
system.ruby.network.int_links6.network_link.power_state.pwrStateResidencyTicks::UNDEFINED 106824727586000                       # Cumulative time (in ticks) in various power states
system.ruby.network.ext_links9.credit_links0.power_state.pwrStateResidencyTicks::UNDEFINED 106824727586000                       # Cumulative time (in ticks) in various power states
system.ruby.network.ext_links9.credit_links1.power_state.pwrStateResidencyTicks::UNDEFINED 106824727586000                       # Cumulative time (in ticks) in various power states
system.ruby.network.ext_links9.network_links1.power_state.pwrStateResidencyTicks::UNDEFINED 106824727586000                       # Cumulative time (in ticks) in various power states
system.ruby.network.ext_links9.network_links0.power_state.pwrStateResidencyTicks::UNDEFINED 106824727586000                       # Cumulative time (in ticks) in various power states
system.ruby.network.ext_links8.credit_links0.power_state.pwrStateResidencyTicks::UNDEFINED 106824727586000                       # Cumulative time (in ticks) in various power states
system.ruby.network.ext_links8.credit_links1.power_state.pwrStateResidencyTicks::UNDEFINED 106824727586000                       # Cumulative time (in ticks) in various power states
system.ruby.network.ext_links8.network_links1.power_state.pwrStateResidencyTicks::UNDEFINED 106824727586000                       # Cumulative time (in ticks) in various power states
system.ruby.network.ext_links8.network_links0.power_state.pwrStateResidencyTicks::UNDEFINED 106824727586000                       # Cumulative time (in ticks) in various power states
system.ruby.network.ext_links7.credit_links0.power_state.pwrStateResidencyTicks::UNDEFINED 106824727586000                       # Cumulative time (in ticks) in various power states
system.ruby.network.ext_links7.credit_links1.power_state.pwrStateResidencyTicks::UNDEFINED 106824727586000                       # Cumulative time (in ticks) in various power states
system.ruby.network.ext_links7.network_links1.power_state.pwrStateResidencyTicks::UNDEFINED 106824727586000                       # Cumulative time (in ticks) in various power states
system.ruby.network.ext_links7.network_links0.power_state.pwrStateResidencyTicks::UNDEFINED 106824727586000                       # Cumulative time (in ticks) in various power states
system.ruby.network.ext_links6.credit_links0.power_state.pwrStateResidencyTicks::UNDEFINED 106824727586000                       # Cumulative time (in ticks) in various power states
system.ruby.network.ext_links6.credit_links1.power_state.pwrStateResidencyTicks::UNDEFINED 106824727586000                       # Cumulative time (in ticks) in various power states
system.ruby.network.ext_links6.network_links1.power_state.pwrStateResidencyTicks::UNDEFINED 106824727586000                       # Cumulative time (in ticks) in various power states
system.ruby.network.ext_links6.network_links0.power_state.pwrStateResidencyTicks::UNDEFINED 106824727586000                       # Cumulative time (in ticks) in various power states
system.ruby.network.ext_links5.credit_links0.power_state.pwrStateResidencyTicks::UNDEFINED 106824727586000                       # Cumulative time (in ticks) in various power states
system.ruby.network.ext_links5.credit_links1.power_state.pwrStateResidencyTicks::UNDEFINED 106824727586000                       # Cumulative time (in ticks) in various power states
system.ruby.network.ext_links5.network_links1.power_state.pwrStateResidencyTicks::UNDEFINED 106824727586000                       # Cumulative time (in ticks) in various power states
system.ruby.network.ext_links5.network_links0.power_state.pwrStateResidencyTicks::UNDEFINED 106824727586000                       # Cumulative time (in ticks) in various power states
system.ruby.network.ext_links4.credit_links0.power_state.pwrStateResidencyTicks::UNDEFINED 106824727586000                       # Cumulative time (in ticks) in various power states
system.ruby.network.ext_links4.credit_links1.power_state.pwrStateResidencyTicks::UNDEFINED 106824727586000                       # Cumulative time (in ticks) in various power states
system.ruby.network.ext_links4.network_links1.power_state.pwrStateResidencyTicks::UNDEFINED 106824727586000                       # Cumulative time (in ticks) in various power states
system.ruby.network.ext_links4.network_links0.power_state.pwrStateResidencyTicks::UNDEFINED 106824727586000                       # Cumulative time (in ticks) in various power states
system.ruby.network.ext_links3.credit_links0.power_state.pwrStateResidencyTicks::UNDEFINED 106824727586000                       # Cumulative time (in ticks) in various power states
system.ruby.network.ext_links3.credit_links1.power_state.pwrStateResidencyTicks::UNDEFINED 106824727586000                       # Cumulative time (in ticks) in various power states
system.ruby.network.ext_links3.network_links1.power_state.pwrStateResidencyTicks::UNDEFINED 106824727586000                       # Cumulative time (in ticks) in various power states
system.ruby.network.ext_links3.network_links0.power_state.pwrStateResidencyTicks::UNDEFINED 106824727586000                       # Cumulative time (in ticks) in various power states
system.ruby.network.ext_links2.credit_links0.power_state.pwrStateResidencyTicks::UNDEFINED 106824727586000                       # Cumulative time (in ticks) in various power states
system.ruby.network.ext_links2.credit_links1.power_state.pwrStateResidencyTicks::UNDEFINED 106824727586000                       # Cumulative time (in ticks) in various power states
system.ruby.network.ext_links2.network_links1.power_state.pwrStateResidencyTicks::UNDEFINED 106824727586000                       # Cumulative time (in ticks) in various power states
system.ruby.network.ext_links2.network_links0.power_state.pwrStateResidencyTicks::UNDEFINED 106824727586000                       # Cumulative time (in ticks) in various power states
system.ruby.network.ext_links1.credit_links0.power_state.pwrStateResidencyTicks::UNDEFINED 106824727586000                       # Cumulative time (in ticks) in various power states
system.ruby.network.ext_links1.credit_links1.power_state.pwrStateResidencyTicks::UNDEFINED 106824727586000                       # Cumulative time (in ticks) in various power states
system.ruby.network.ext_links1.network_links1.power_state.pwrStateResidencyTicks::UNDEFINED 106824727586000                       # Cumulative time (in ticks) in various power states
system.ruby.network.ext_links1.network_links0.power_state.pwrStateResidencyTicks::UNDEFINED 106824727586000                       # Cumulative time (in ticks) in various power states
system.ruby.network.ext_links0.credit_links0.power_state.pwrStateResidencyTicks::UNDEFINED 106824727586000                       # Cumulative time (in ticks) in various power states
system.ruby.network.ext_links0.credit_links1.power_state.pwrStateResidencyTicks::UNDEFINED 106824727586000                       # Cumulative time (in ticks) in various power states
system.ruby.network.ext_links0.network_links1.power_state.pwrStateResidencyTicks::UNDEFINED 106824727586000                       # Cumulative time (in ticks) in various power states
system.ruby.network.ext_links0.network_links0.power_state.pwrStateResidencyTicks::UNDEFINED 106824727586000                       # Cumulative time (in ticks) in various power states
system.ruby.network.routers2.power_state.pwrStateResidencyTicks::UNDEFINED 106824727586000                       # Cumulative time (in ticks) in various power states
system.ruby.network.routers3.power_state.pwrStateResidencyTicks::UNDEFINED 106824727586000                       # Cumulative time (in ticks) in various power states
system.ruby.network.routers0.power_state.pwrStateResidencyTicks::UNDEFINED 106824727586000                       # Cumulative time (in ticks) in various power states
system.ruby.network.routers1.power_state.pwrStateResidencyTicks::UNDEFINED 106824727586000                       # Cumulative time (in ticks) in various power states
system.ruby.io_controller.power_state.pwrStateResidencyTicks::UNDEFINED 106824727586000                       # Cumulative time (in ticks) in various power states
system.ruby.io_controller.dma_sequencer.power_state.pwrStateResidencyTicks::UNDEFINED 106824727586000                       # Cumulative time (in ticks) in various power states
[...]
system.iobus.pkt_count_system.ruby.l1_cntrl0.sequencer.mem-master-port::system.pc.south_bridge.pic1.pio           68                       # Packet count per connected master and slave (bytes)
system.iobus.pkt_count_system.ruby.l1_cntrl0.sequencer.mem-master-port::system.pc.south_bridge.pic2.pio           50                       # Packet count per connected master and slave (bytes)
system.iobus.pkt_count_system.ruby.l1_cntrl0.sequencer.mem-master-port::system.pc.south_bridge.pit.pio           64                       # Packet count per connected master and slave (bytes)
system.iobus.pkt_count_system.ruby.l1_cntrl0.sequencer.mem-master-port::system.pc.south_bridge.speaker.pio         3372                       # Packet count per connected master and slave (bytes)
system.iobus.pkt_count_system.ruby.l1_cntrl0.sequencer.mem-master-port::system.pc.south_bridge.io_apic.pio          800                       # Packet count per connected master and slave (bytes)
system.iobus.pkt_count_system.ruby.l1_cntrl0.sequencer.mem-master-port::system.pc.i_dont_exist1.pio           12                       # Packet count per connected master and slave (bytes)
system.iobus.pkt_count_system.ruby.l1_cntrl0.sequencer.mem-master-port::system.pc.com_1.pio        48846                       # Packet count per connected master and slave (bytes)
system.iobus.pkt_count_system.ruby.l1_cntrl0.sequencer.mem-master-port::system.pc.fake_com_2.pio           12                       # Packet count per connected master and slave (bytes)
system.iobus.pkt_count_system.ruby.l1_cntrl0.sequencer.mem-master-port::system.pc.fake_com_3.pio           12                       # Packet count per connected master and slave (bytes)
system.iobus.pkt_count_system.ruby.l1_cntrl0.sequencer.mem-master-port::system.pc.fake_com_4.pio           12                       # Packet count per connected master and slave (bytes)
system.iobus.pkt_count_system.ruby.l1_cntrl0.sequencer.mem-master-port::system.ruby.l1_cntrl0.sequencer.pio-slave-port       247578                       # Packet count per connected master and slave (bytes)
system.iobus.pkt_count_system.ruby.l1_cntrl0.sequencer.mem-master-port::system.ruby.l1_cntrl1.sequencer.pio-slave-port          712                       # Packet count per connected master and slave (bytes)
system.iobus.pkt_count_system.ruby.l1_cntrl0.sequencer.mem-master-port::system.ruby.l1_cntrl2.sequencer.pio-slave-port         1464                       # Packet count per connected master and slave (bytes)
system.iobus.pkt_count_system.ruby.l1_cntrl0.sequencer.mem-master-port::system.ruby.l1_cntrl3.sequencer.pio-slave-port         3884                       # Packet count per connected master and slave (bytes)
system.iobus.pkt_count_system.ruby.l1_cntrl0.sequencer.mem-master-port::system.pc.pci_host.pio          316                       # Packet count per connected master and slave (bytes)
system.iobus.pkt_count_system.ruby.l1_cntrl0.sequencer.mem-master-port::total       336408                       # Packet count per connected master and slave (bytes)
system.iobus.pkt_count_system.ruby.l1_cntrl1.sequencer.mem-master-port::system.pc.south_bridge.ide.pio        41260                       # Packet count per connected master and slave (bytes)
system.iobus.pkt_count_system.ruby.l1_cntrl1.sequencer.mem-master-port::system.pc.south_bridge.pic1.pio            4                       # Packet count per connected master and slave (bytes)
system.iobus.pkt_count_system.ruby.l1_cntrl1.sequencer.mem-master-port::system.pc.south_bridge.io_apic.pio           20                       # Packet count per connected master and slave (bytes)
system.iobus.pkt_count_system.ruby.l1_cntrl1.sequencer.mem-master-port::system.pc.com_1.pio       222306                       # Packet count per connected master and slave (bytes)
system.iobus.pkt_count_system.ruby.l1_cntrl1.sequencer.mem-master-port::system.ruby.l1_cntrl0.sequencer.pio-slave-port        13752                       # Packet count per connected master and slave (bytes)
system.iobus.pkt_count_system.ruby.l1_cntrl1.sequencer.mem-master-port::system.ruby.l1_cntrl1.sequencer.pio-slave-port       264274                       # Packet count per connected master and slave (bytes)
system.iobus.pkt_count_system.ruby.l1_cntrl1.sequencer.mem-master-port::system.ruby.l1_cntrl2.sequencer.pio-slave-port         1966                       # Packet count per connected master and slave (bytes)
system.iobus.pkt_count_system.ruby.l1_cntrl1.sequencer.mem-master-port::system.ruby.l1_cntrl3.sequencer.pio-slave-port         2484                       # Packet count per connected master and slave (bytes)
system.iobus.pkt_count_system.ruby.l1_cntrl1.sequencer.mem-master-port::total       546066                       # Packet count per connected master and slave (bytes)
system.iobus.pkt_count_system.ruby.l1_cntrl2.sequencer.mem-master-port::system.pc.south_bridge.ide.pio        16830                       # Packet count per connected master and slave (bytes)
system.iobus.pkt_count_system.ruby.l1_cntrl2.sequencer.mem-master-port::system.pc.south_bridge.keyboard.pio           12                       # Packet count per connected master and slave (bytes)
system.iobus.pkt_count_system.ruby.l1_cntrl2.sequencer.mem-master-port::system.pc.south_bridge.pic1.pio            4                       # Packet count per connected master and slave (bytes)
system.iobus.pkt_count_system.ruby.l1_cntrl2.sequencer.mem-master-port::system.pc.south_bridge.io_apic.pio           20                       # Packet count per connected master and slave (bytes)
system.iobus.pkt_count_system.ruby.l1_cntrl2.sequencer.mem-master-port::system.pc.com_1.pio         3028                       # Packet count per connected master and slave (bytes)
system.iobus.pkt_count_system.ruby.l1_cntrl2.sequencer.mem-master-port::system.ruby.l1_cntrl0.sequencer.pio-slave-port          794                       # Packet count per connected master and slave (bytes)
system.iobus.pkt_count_system.ruby.l1_cntrl2.sequencer.mem-master-port::system.ruby.l1_cntrl1.sequencer.pio-slave-port          348                       # Packet count per connected master and slave (bytes)
system.iobus.pkt_count_system.ruby.l1_cntrl2.sequencer.mem-master-port::system.ruby.l1_cntrl2.sequencer.pio-slave-port       234256                       # Packet count per connected master and slave (bytes)
system.iobus.pkt_count_system.ruby.l1_cntrl2.sequencer.mem-master-port::system.ruby.l1_cntrl3.sequencer.pio-slave-port         4328                       # Packet count per connected master and slave (bytes)
system.iobus.pkt_count_system.ruby.l1_cntrl2.sequencer.mem-master-port::total       259620                       # Packet count per connected master and slave (bytes)
system.iobus.pkt_count_system.ruby.l1_cntrl3.sequencer.mem-master-port::system.pc.south_bridge.ide.pio        32300                       # Packet count per connected master and slave (bytes)
system.iobus.pkt_count_system.ruby.l1_cntrl3.sequencer.mem-master-port::system.pc.south_bridge.keyboard.pio           36                       # Packet count per connected master and slave (bytes)
system.iobus.pkt_count_system.ruby.l1_cntrl3.sequencer.mem-master-port::system.pc.behind_pci.pio            2                       # Packet count per connected master and slave (bytes)
system.iobus.pkt_count_system.ruby.l1_cntrl3.sequencer.mem-master-port::system.pc.com_1.pio         1202                       # Packet count per connected master and slave (bytes)
system.iobus.pkt_count_system.ruby.l1_cntrl3.sequencer.mem-master-port::system.ruby.l1_cntrl0.sequencer.pio-slave-port         1010                       # Packet count per connected master and slave (bytes)
system.iobus.pkt_count_system.ruby.l1_cntrl3.sequencer.mem-master-port::system.ruby.l1_cntrl1.sequencer.pio-slave-port          414                       # Packet count per connected master and slave (bytes)
system.iobus.pkt_count_system.ruby.l1_cntrl3.sequencer.mem-master-port::system.ruby.l1_cntrl2.sequencer.pio-slave-port         1342                       # Packet count per connected master and slave (bytes)
system.iobus.pkt_count_system.ruby.l1_cntrl3.sequencer.mem-master-port::system.ruby.l1_cntrl3.sequencer.pio-slave-port       232112                       # Packet count per connected master and slave (bytes)
system.iobus.pkt_count_system.ruby.l1_cntrl3.sequencer.mem-master-port::system.pc.pci_host.pio           10                       # Packet count per connected master and slave (bytes)
system.iobus.pkt_count_system.ruby.l1_cntrl3.sequencer.mem-master-port::total       268428                       # Packet count per connected master and slave (bytes)
system.iobus.pkt_count::total                 1470688                       # Packet count per connected master and slave (bytes)
system.iobus.pkt_size_system.pc.south_bridge.io_apic.int_master::system.ruby.l1_cntrl0.sequencer.pio-slave-port         1108                       # Cumulative packet size per connected master and slave (bytes)
system.iobus.pkt_size_system.pc.south_bridge.io_apic.int_master::system.ruby.l1_cntrl1.sequencer.pio-slave-port       119176                       # Cumulative packet size per connected master and slave (bytes)
system.iobus.pkt_size_system.pc.south_bridge.io_apic.int_master::system.ruby.l1_cntrl2.sequencer.pio-slave-port           12                       # Cumulative packet size per connected master and slave (bytes)
system.iobus.pkt_size_system.pc.south_bridge.io_apic.int_master::system.ruby.l1_cntrl3.sequencer.pio-slave-port           36                       # Cumulative packet size per connected master and slave (bytes)
system.iobus.pkt_size_system.pc.south_bridge.io_apic.int_master::total       120332                       # Cumulative packet size per connected master and slave (bytes)
system.iobus.pkt_size_system.ruby.l1_cntrl0.sequencer.mem-master-port::system.pc.south_bridge.cmos.pio           30                       # Cumulative packet size per connected master and slave (bytes)
system.iobus.pkt_size_system.ruby.l1_cntrl0.sequencer.mem-master-port::system.pc.south_bridge.ide.pio        17212                       # Cumulative packet size per connected master and slave (bytes)
system.iobus.pkt_size_system.ruby.l1_cntrl0.sequencer.mem-master-port::system.pc.south_bridge.keyboard.pio          110                       # Cumulative packet size per connected master and slave (bytes)
system.iobus.pkt_size_system.ruby.l1_cntrl0.sequencer.mem-master-port::system.pc.south_bridge.pic1.pio           34                       # Cumulative packet size per connected master and slave (bytes)
system.iobus.pkt_size_system.ruby.l1_cntrl0.sequencer.mem-master-port::system.pc.south_bridge.pic2.pio           25                       # Cumulative packet size per connected master and slave (bytes)
system.iobus.pkt_size_system.ruby.l1_cntrl0.sequencer.mem-master-port::system.pc.south_bridge.pit.pio           32                       # Cumulative packet size per connected master and slave (bytes)
system.iobus.pkt_size_system.ruby.l1_cntrl0.sequencer.mem-master-port::system.pc.south_bridge.speaker.pio         1686                       # Cumulative packet size per connected master and slave (bytes)
system.iobus.pkt_size_system.ruby.l1_cntrl0.sequencer.mem-master-port::system.pc.south_bridge.io_apic.pio         1600                       # Cumulative packet size per connected master and slave (bytes)
system.iobus.pkt_size_system.ruby.l1_cntrl0.sequencer.mem-master-port::system.pc.i_dont_exist1.pio            6                       # Cumulative packet size per connected master and slave (bytes)
system.iobus.pkt_size_system.ruby.l1_cntrl0.sequencer.mem-master-port::system.pc.com_1.pio        24423                       # Cumulative packet size per connected master and slave (bytes)
system.iobus.pkt_size_system.ruby.l1_cntrl0.sequencer.mem-master-port::system.pc.fake_com_2.pio            6                       # Cumulative packet size per connected master and slave (bytes)
system.iobus.pkt_size_system.ruby.l1_cntrl0.sequencer.mem-master-port::system.pc.fake_com_3.pio            6                       # Cumulative packet size per connected master and slave (bytes)
system.iobus.pkt_size_system.ruby.l1_cntrl0.sequencer.mem-master-port::system.pc.fake_com_4.pio            6                       # Cumulative packet size per connected master and slave (bytes)
system.iobus.pkt_size_system.ruby.l1_cntrl0.sequencer.mem-master-port::system.ruby.l1_cntrl0.sequencer.pio-slave-port       495156                       # Cumulative packet size per connected master and slave (bytes)
system.iobus.pkt_size_system.ruby.l1_cntrl0.sequencer.mem-master-port::system.ruby.l1_cntrl1.sequencer.pio-slave-port         1424                       # Cumulative packet size per connected master and slave (bytes)
system.iobus.pkt_size_system.ruby.l1_cntrl0.sequencer.mem-master-port::system.ruby.l1_cntrl2.sequencer.pio-slave-port         2928                       # Cumulative packet size per connected master and slave (bytes)
system.iobus.pkt_size_system.ruby.l1_cntrl0.sequencer.mem-master-port::system.ruby.l1_cntrl3.sequencer.pio-slave-port         7768                       # Cumulative packet size per connected master and slave (bytes)
system.iobus.pkt_size_system.ruby.l1_cntrl0.sequencer.mem-master-port::system.pc.pci_host.pio          424                       # Cumulative packet size per connected master and slave (bytes)
system.iobus.pkt_size_system.ruby.l1_cntrl0.sequencer.mem-master-port::total       552876                       # Cumulative packet size per connected master and slave (bytes)
system.iobus.pkt_size_system.ruby.l1_cntrl1.sequencer.mem-master-port::system.pc.south_bridge.ide.pio        21536                       # Cumulative packet size per connected master and slave (bytes)
system.iobus.pkt_size_system.ruby.l1_cntrl1.sequencer.mem-master-port::system.pc.south_bridge.pic1.pio            2                       # Cumulative packet size per connected master and slave (bytes)
system.iobus.pkt_size_system.ruby.l1_cntrl1.sequencer.mem-master-port::system.pc.south_bridge.io_apic.pio           40                       # Cumulative packet size per connected master and slave (bytes)
system.iobus.pkt_size_system.ruby.l1_cntrl1.sequencer.mem-master-port::system.pc.com_1.pio       111153                       # Cumulative packet size per connected master and slave (bytes)
system.iobus.pkt_size_system.ruby.l1_cntrl1.sequencer.mem-master-port::system.ruby.l1_cntrl0.sequencer.pio-slave-port        27504                       # Cumulative packet size per connected master and slave (bytes)
system.iobus.pkt_size_system.ruby.l1_cntrl1.sequencer.mem-master-port::system.ruby.l1_cntrl1.sequencer.pio-slave-port       528548                       # Cumulative packet size per connected master and slave (bytes)
system.iobus.pkt_size_system.ruby.l1_cntrl1.sequencer.mem-master-port::system.ruby.l1_cntrl2.sequencer.pio-slave-port         3932                       # Cumulative packet size per connected master and slave (bytes)
system.iobus.pkt_size_system.ruby.l1_cntrl1.sequencer.mem-master-port::system.ruby.l1_cntrl3.sequencer.pio-slave-port         4968                       # Cumulative packet size per connected master and slave (bytes)
system.iobus.pkt_size_system.ruby.l1_cntrl1.sequencer.mem-master-port::total       697683                       # Cumulative packet size per connected master and slave (bytes)
system.iobus.pkt_size_system.ruby.l1_cntrl2.sequencer.mem-master-port::system.pc.south_bridge.ide.pio         9900                       # Cumulative packet size per connected master and slave (bytes)
system.iobus.pkt_size_system.ruby.l1_cntrl2.sequencer.mem-master-port::system.pc.south_bridge.keyboard.pio            6                       # Cumulative packet size per connected master and slave (bytes)
system.iobus.pkt_size_system.ruby.l1_cntrl2.sequencer.mem-master-port::system.pc.south_bridge.pic1.pio            2                       # Cumulative packet size per connected master and slave (bytes)
system.iobus.pkt_size_system.ruby.l1_cntrl2.sequencer.mem-master-port::system.pc.south_bridge.io_apic.pio           40                       # Cumulative packet size per connected master and slave (bytes)
system.iobus.pkt_size_system.ruby.l1_cntrl2.sequencer.mem-master-port::system.pc.com_1.pio         1514                       # Cumulative packet size per connected master and slave (bytes)
system.iobus.pkt_size_system.ruby.l1_cntrl2.sequencer.mem-master-port::system.ruby.l1_cntrl0.sequencer.pio-slave-port         1588                       # Cumulative packet size per connected master and slave (bytes)
system.iobus.pkt_size_system.ruby.l1_cntrl2.sequencer.mem-master-port::system.ruby.l1_cntrl1.sequencer.pio-slave-port          696                       # Cumulative packet size per connected master and slave (bytes)
system.iobus.pkt_size_system.ruby.l1_cntrl2.sequencer.mem-master-port::system.ruby.l1_cntrl2.sequencer.pio-slave-port       468512                       # Cumulative packet size per connected master and slave (bytes)
system.iobus.pkt_size_system.ruby.l1_cntrl2.sequencer.mem-master-port::system.ruby.l1_cntrl3.sequencer.pio-slave-port         8656                       # Cumulative packet size per connected master and slave (bytes)
system.iobus.pkt_size_system.ruby.l1_cntrl2.sequencer.mem-master-port::total       490914                       # Cumulative packet size per connected master and slave (bytes)
system.iobus.pkt_size_system.ruby.l1_cntrl3.sequencer.mem-master-port::system.pc.south_bridge.ide.pio        19000                       # Cumulative packet size per connected master and slave (bytes)
system.iobus.pkt_size_system.ruby.l1_cntrl3.sequencer.mem-master-port::system.pc.south_bridge.keyboard.pio           18                       # Cumulative packet size per connected master and slave (bytes)
system.iobus.pkt_size_system.ruby.l1_cntrl3.sequencer.mem-master-port::system.pc.behind_pci.pio            1                       # Cumulative packet size per connected master and slave (bytes)
system.iobus.pkt_size_system.ruby.l1_cntrl3.sequencer.mem-master-port::system.pc.com_1.pio          601                       # Cumulative packet size per connected master and slave (bytes)
system.iobus.pkt_size_system.ruby.l1_cntrl3.sequencer.mem-master-port::system.ruby.l1_cntrl0.sequencer.pio-slave-port         2020                       # Cumulative packet size per connected master and slave (bytes)
system.iobus.pkt_size_system.ruby.l1_cntrl3.sequencer.mem-master-port::system.ruby.l1_cntrl1.sequencer.pio-slave-port          828                       # Cumulative packet size per connected master and slave (bytes)
system.iobus.pkt_size_system.ruby.l1_cntrl3.sequencer.mem-master-port::system.ruby.l1_cntrl2.sequencer.pio-slave-port         2684                       # Cumulative packet size per connected master and slave (bytes)
system.iobus.pkt_size_system.ruby.l1_cntrl3.sequencer.mem-master-port::system.ruby.l1_cntrl3.sequencer.pio-slave-port       464224                       # Cumulative packet size per connected master and slave (bytes)
system.iobus.pkt_size_system.ruby.l1_cntrl3.sequencer.mem-master-port::system.pc.pci_host.pio           20                       # Cumulative packet size per connected master and slave (bytes)
system.iobus.pkt_size_system.ruby.l1_cntrl3.sequencer.mem-master-port::total       489396                       # Cumulative packet size per connected master and slave (bytes)
system.iobus.pkt_size::total                  2351201                       # Cumulative packet size per connected master and slave (bytes)
system.iobus.power_state.pwrStateResidencyTicks::UNDEFINED 106824727586000                       # Cumulative time (in ticks) in various power states

---------- End Simulation Statistics   ----------
