
---------- Begin Simulation Statistics ----------
final_tick                               1119304562000                       # Number of ticks from beginning of simulation (restored from checkpoints and never reset)
host_inst_rate                                 324611                       # Simulator instruction rate (inst/s)
host_mem_usage                                1228848                       # Number of bytes of host memory used
host_op_rate                                   523345                       # Simulator op (including micro ops) rate (op/s)
host_seconds                                  2804.31                       # Real time elapsed on the host
host_tick_rate                              399137843                       # Simulator tick rate (ticks/s)
sim_freq                                 1000000000000                       # Frequency of simulated ticks
sim_insts                                   910308776                       # Number of instructions simulated
sim_ops                                    1467618808                       # Number of ops (including micro ops) simulated
sim_seconds                                  1.119305                       # Number of seconds simulated
sim_ticks                                1119304562000                       # Number of ticks simulated
system.cpu0.Branches                         51700966                       # Number of branches fetched
system.cpu0.committedInsts                  521646033                       # Number of instructions committed
system.cpu0.committedOps                    891170673                       # Number of ops (including micro ops) committed
system.cpu0.dtb.rdAccesses                  122669198                       # TLB accesses on read requests
system.cpu0.dtb.rdMisses                        24007                       # TLB misses on read requests
system.cpu0.dtb.wrAccesses                   64029671                       # TLB accesses on write requests
system.cpu0.dtb.wrMisses                       803945                       # TLB misses on write requests
system.cpu0.idle_fraction                    0.002975                       # Percentage of idle cycles
system.cpu0.itb.rdAccesses                          0                       # TLB accesses on read requests
system.cpu0.itb.rdMisses                            0                       # TLB misses on read requests
system.cpu0.itb.wrAccesses                  752690104                       # TLB accesses on write requests
system.cpu0.itb.wrMisses                          365                       # TLB misses on write requests
system.cpu0.not_idle_fraction                0.997025                       # Percentage of non-idle cycles
system.cpu0.numCycles                      2238609124                       # number of cpu cycles simulated
system.cpu0.numWorkItemsCompleted                   0                       # number of work items this cpu completed
system.cpu0.numWorkItemsStarted                     0                       # number of work items this cpu started
system.cpu0.num_busy_cycles              2231950097.998006                       # Number of busy cycles
system.cpu0.num_cc_register_reads           230076263                       # number of times the CC registers were read
system.cpu0.num_cc_register_writes          228321484                       # number of times the CC registers were written
system.cpu0.num_conditional_control_insts     30662452                       # number of instructions that are conditional controls
system.cpu0.num_fp_alu_accesses             363580203                       # Number of float alu accesses
system.cpu0.num_fp_insts                    363580203                       # number of float instructions
system.cpu0.num_fp_register_reads           555158094                       # number of times the floating registers were read
system.cpu0.num_fp_register_writes          323562131                       # number of times the floating registers were written
system.cpu0.num_func_calls                   14691115                       # number of times a function call or return occured
system.cpu0.num_idle_cycles              6659026.001994                       # Number of idle cycles
system.cpu0.num_int_alu_accesses            631033826                       # Number of integer alu accesses
system.cpu0.num_int_insts                   631033826                       # number of integer instructions
system.cpu0.num_int_register_reads         1299748490                       # number of times the integer registers were read
system.cpu0.num_int_register_writes         449326745                       # number of times the integer registers were written
system.cpu0.num_load_insts                  122669161                       # Number of load instructions
system.cpu0.num_mem_refs                    186698820                       # number of memory refs
system.cpu0.num_store_insts                  64029659                       # Number of store instructions
system.cpu0.num_vec_alu_accesses                    0                       # Number of vector alu accesses
system.cpu0.num_vec_insts                           0                       # number of vector instructions
system.cpu0.num_vec_register_reads                  0                       # number of times the vector registers were read
system.cpu0.num_vec_register_writes                 0                       # number of times the vector registers were written
system.cpu0.op_class::No_OpClass                92363      0.01%      0.01% # Class of executed instruction
system.cpu0.op_class::IntAlu                521801912     58.55%     58.56% # Class of executed instruction
system.cpu0.op_class::IntMult                 2098409      0.24%     58.80% # Class of executed instruction
system.cpu0.op_class::IntDiv                    38272      0.00%     58.80% # Class of executed instruction
system.cpu0.op_class::FloatAdd               48610963      5.45%     64.26% # Class of executed instruction
system.cpu0.op_class::FloatCmp                      0      0.00%     64.26% # Class of executed instruction
system.cpu0.op_class::FloatCvt                    192      0.00%     64.26% # Class of executed instruction
system.cpu0.op_class::FloatMult                     0      0.00%     64.26% # Class of executed instruction
system.cpu0.op_class::FloatMultAcc                  0      0.00%     64.26% # Class of executed instruction
system.cpu0.op_class::FloatDiv                      0      0.00%     64.26% # Class of executed instruction
system.cpu0.op_class::FloatMisc                     0      0.00%     64.26% # Class of executed instruction
system.cpu0.op_class::FloatSqrt                     0      0.00%     64.26% # Class of executed instruction
system.cpu0.op_class::SimdAdd                    2134      0.00%     64.26% # Class of executed instruction
system.cpu0.op_class::SimdAddAcc                    0      0.00%     64.26% # Class of executed instruction
system.cpu0.op_class::SimdAlu                25886069      2.90%     67.16% # Class of executed instruction
system.cpu0.op_class::SimdCmp                      20      0.00%     67.16% # Class of executed instruction
system.cpu0.op_class::SimdCvt                    4206      0.00%     67.16% # Class of executed instruction
system.cpu0.op_class::SimdMisc                4439212      0.50%     67.66% # Class of executed instruction
system.cpu0.op_class::SimdMult                      0      0.00%     67.66% # Class of executed instruction
system.cpu0.op_class::SimdMultAcc                   0      0.00%     67.66% # Class of executed instruction
system.cpu0.op_class::SimdShift                   952      0.00%     67.66% # Class of executed instruction
system.cpu0.op_class::SimdShiftAcc                  0      0.00%     67.66% # Class of executed instruction
system.cpu0.op_class::SimdDiv                       0      0.00%     67.66% # Class of executed instruction
system.cpu0.op_class::SimdSqrt                      0      0.00%     67.66% # Class of executed instruction
system.cpu0.op_class::SimdFloatAdd           55288068      6.20%     73.86% # Class of executed instruction
system.cpu0.op_class::SimdFloatAlu                  0      0.00%     73.86% # Class of executed instruction
system.cpu0.op_class::SimdFloatCmp                  0      0.00%     73.86% # Class of executed instruction
system.cpu0.op_class::SimdFloatCvt            5699110      0.64%     74.50% # Class of executed instruction
system.cpu0.op_class::SimdFloatDiv            1049602      0.12%     74.62% # Class of executed instruction
system.cpu0.op_class::SimdFloatMisc                 0      0.00%     74.62% # Class of executed instruction
system.cpu0.op_class::SimdFloatMult          39484018      4.43%     79.05% # Class of executed instruction
system.cpu0.op_class::SimdFloatMultAcc              0      0.00%     79.05% # Class of executed instruction
system.cpu0.op_class::SimdFloatSqrt                 0      0.00%     79.05% # Class of executed instruction
system.cpu0.op_class::SimdReduceAdd                 0      0.00%     79.05% # Class of executed instruction
system.cpu0.op_class::SimdReduceAlu                 0      0.00%     79.05% # Class of executed instruction
system.cpu0.op_class::SimdReduceCmp                 0      0.00%     79.05% # Class of executed instruction
system.cpu0.op_class::SimdFloatReduceAdd            0      0.00%     79.05% # Class of executed instruction
system.cpu0.op_class::SimdFloatReduceCmp            0      0.00%     79.05% # Class of executed instruction
system.cpu0.op_class::SimdAes                       0      0.00%     79.05% # Class of executed instruction
system.cpu0.op_class::SimdAesMix                    0      0.00%     79.05% # Class of executed instruction
system.cpu0.op_class::SimdSha1Hash                  0      0.00%     79.05% # Class of executed instruction
system.cpu0.op_class::SimdSha1Hash2                 0      0.00%     79.05% # Class of executed instruction
system.cpu0.op_class::SimdSha256Hash                0      0.00%     79.05% # Class of executed instruction
system.cpu0.op_class::SimdSha256Hash2               0      0.00%     79.05% # Class of executed instruction
system.cpu0.op_class::SimdShaSigma2                 0      0.00%     79.05% # Class of executed instruction
system.cpu0.op_class::SimdShaSigma3                 0      0.00%     79.05% # Class of executed instruction
system.cpu0.op_class::SimdPredAlu                   0      0.00%     79.05% # Class of executed instruction
system.cpu0.op_class::MemRead                55574579      6.24%     85.29% # Class of executed instruction
system.cpu0.op_class::MemWrite               32049171      3.60%     88.88% # Class of executed instruction
system.cpu0.op_class::FloatMemRead           67094582      7.53%     96.41% # Class of executed instruction
system.cpu0.op_class::FloatMemWrite          31980488      3.59%    100.00% # Class of executed instruction
system.cpu0.op_class::IprAccess                     0      0.00%    100.00% # Class of executed instruction
system.cpu0.op_class::InstPrefetch                  0      0.00%    100.00% # Class of executed instruction
system.cpu0.op_class::total                 891194322                       # Class of executed instruction
system.cpu0.workload.numSyscalls                  131                       # Number of system calls
system.cpu1.Branches                          7988627                       # Number of branches fetched
system.cpu1.committedInsts                  129555406                       # Number of instructions committed
system.cpu1.committedOps                    192151007                       # Number of ops (including micro ops) committed
system.cpu1.dtb.rdAccesses                   22686544                       # TLB accesses on read requests
system.cpu1.dtb.rdMisses                         9374                       # TLB misses on read requests
system.cpu1.dtb.wrAccesses                   14155282                       # TLB accesses on write requests
system.cpu1.dtb.wrMisses                       787471                       # TLB misses on write requests
system.cpu1.idle_fraction                    0.703092                       # Percentage of idle cycles
system.cpu1.itb.rdAccesses                          0                       # TLB accesses on read requests
system.cpu1.itb.rdMisses                            0                       # TLB misses on read requests
system.cpu1.itb.wrAccesses                  197017482                       # TLB accesses on write requests
system.cpu1.itb.wrMisses                           88                       # TLB misses on write requests
system.cpu1.not_idle_fraction                0.296908                       # Percentage of non-idle cycles
system.cpu1.numCycles                      2238463647                       # number of cpu cycles simulated
system.cpu1.numWorkItemsCompleted                   0                       # number of work items this cpu completed
system.cpu1.numWorkItemsStarted                     0                       # number of work items this cpu started
system.cpu1.num_busy_cycles              664617696.718695                       # Number of busy cycles
system.cpu1.num_cc_register_reads            53121374                       # number of times the CC registers were read
system.cpu1.num_cc_register_writes           58929897                       # number of times the CC registers were written
system.cpu1.num_conditional_control_insts      7528111                       # number of instructions that are conditional controls
system.cpu1.num_fp_alu_accesses             102146078                       # Number of float alu accesses
system.cpu1.num_fp_insts                    102146078                       # number of float instructions
system.cpu1.num_fp_register_reads           141009108                       # number of times the floating registers were read
system.cpu1.num_fp_register_writes           88543626                       # number of times the floating registers were written
system.cpu1.num_func_calls                       1519                       # number of times a function call or return occured
system.cpu1.num_idle_cycles              1573845950.281305                       # Number of idle cycles
system.cpu1.num_int_alu_accesses            122899599                       # Number of integer alu accesses
system.cpu1.num_int_insts                   122899599                       # number of integer instructions
system.cpu1.num_int_register_reads          259019315                       # number of times the integer registers were read
system.cpu1.num_int_register_writes          81464673                       # number of times the integer registers were written
system.cpu1.num_load_insts                   22686541                       # Number of load instructions
system.cpu1.num_mem_refs                     36841823                       # number of memory refs
system.cpu1.num_store_insts                  14155282                       # Number of store instructions
system.cpu1.num_vec_alu_accesses                    0                       # Number of vector alu accesses
system.cpu1.num_vec_insts                           0                       # number of vector instructions
system.cpu1.num_vec_register_reads                  0                       # number of times the vector registers were read
system.cpu1.num_vec_register_writes                 0                       # number of times the vector registers were written
system.cpu1.op_class::No_OpClass                76865      0.04%      0.04% # Class of executed instruction
system.cpu1.op_class::IntAlu                108042448     56.23%     56.27% # Class of executed instruction
system.cpu1.op_class::IntMult                      65      0.00%     56.27% # Class of executed instruction
system.cpu1.op_class::IntDiv                    36016      0.02%     56.29% # Class of executed instruction
system.cpu1.op_class::FloatAdd               19365950     10.08%     66.36% # Class of executed instruction
system.cpu1.op_class::FloatCmp                      0      0.00%     66.36% # Class of executed instruction
system.cpu1.op_class::FloatCvt                     80      0.00%     66.36% # Class of executed instruction
system.cpu1.op_class::FloatMult                     0      0.00%     66.36% # Class of executed instruction
system.cpu1.op_class::FloatMultAcc                  0      0.00%     66.36% # Class of executed instruction
system.cpu1.op_class::FloatDiv                      0      0.00%     66.36% # Class of executed instruction
system.cpu1.op_class::FloatMisc                     0      0.00%     66.36% # Class of executed instruction
system.cpu1.op_class::FloatSqrt                     0      0.00%     66.36% # Class of executed instruction
system.cpu1.op_class::SimdAdd                     470      0.00%     66.37% # Class of executed instruction
system.cpu1.op_class::SimdAddAcc                    0      0.00%     66.37% # Class of executed instruction
system.cpu1.op_class::SimdAlu                     186      0.00%     66.37% # Class of executed instruction
system.cpu1.op_class::SimdCmp                       0      0.00%     66.37% # Class of executed instruction
system.cpu1.op_class::SimdCvt                     324      0.00%     66.37% # Class of executed instruction
system.cpu1.op_class::SimdMisc                    310      0.00%     66.37% # Class of executed instruction
system.cpu1.op_class::SimdMult                      0      0.00%     66.37% # Class of executed instruction
system.cpu1.op_class::SimdMultAcc                   0      0.00%     66.37% # Class of executed instruction
system.cpu1.op_class::SimdShift                   236      0.00%     66.37% # Class of executed instruction
system.cpu1.op_class::SimdShiftAcc                  0      0.00%     66.37% # Class of executed instruction
system.cpu1.op_class::SimdDiv                       0      0.00%     66.37% # Class of executed instruction
system.cpu1.op_class::SimdSqrt                      0      0.00%     66.37% # Class of executed instruction
system.cpu1.op_class::SimdFloatAdd           16252928      8.46%     74.82% # Class of executed instruction
system.cpu1.op_class::SimdFloatAlu                  0      0.00%     74.82% # Class of executed instruction
system.cpu1.op_class::SimdFloatCmp                  0      0.00%     74.82% # Class of executed instruction
system.cpu1.op_class::SimdFloatCvt                  0      0.00%     74.82% # Class of executed instruction
system.cpu1.op_class::SimdFloatDiv                  0      0.00%     74.82% # Class of executed instruction
system.cpu1.op_class::SimdFloatMisc                 0      0.00%     74.82% # Class of executed instruction
system.cpu1.op_class::SimdFloatMult          11534336      6.00%     80.83% # Class of executed instruction
system.cpu1.op_class::SimdFloatMultAcc              0      0.00%     80.83% # Class of executed instruction
system.cpu1.op_class::SimdFloatSqrt                 0      0.00%     80.83% # Class of executed instruction
system.cpu1.op_class::SimdReduceAdd                 0      0.00%     80.83% # Class of executed instruction
system.cpu1.op_class::SimdReduceAlu                 0      0.00%     80.83% # Class of executed instruction
system.cpu1.op_class::SimdReduceCmp                 0      0.00%     80.83% # Class of executed instruction
system.cpu1.op_class::SimdFloatReduceAdd            0      0.00%     80.83% # Class of executed instruction
system.cpu1.op_class::SimdFloatReduceCmp            0      0.00%     80.83% # Class of executed instruction
system.cpu1.op_class::SimdAes                       0      0.00%     80.83% # Class of executed instruction
system.cpu1.op_class::SimdAesMix                    0      0.00%     80.83% # Class of executed instruction
system.cpu1.op_class::SimdSha1Hash                  0      0.00%     80.83% # Class of executed instruction
system.cpu1.op_class::SimdSha1Hash2                 0      0.00%     80.83% # Class of executed instruction
system.cpu1.op_class::SimdSha256Hash                0      0.00%     80.83% # Class of executed instruction
system.cpu1.op_class::SimdSha256Hash2               0      0.00%     80.83% # Class of executed instruction
system.cpu1.op_class::SimdShaSigma2                 0      0.00%     80.83% # Class of executed instruction
system.cpu1.op_class::SimdShaSigma3                 0      0.00%     80.83% # Class of executed instruction
system.cpu1.op_class::SimdPredAlu                   0      0.00%     80.83% # Class of executed instruction
system.cpu1.op_class::MemRead                 3318168      1.73%     82.55% # Class of executed instruction
system.cpu1.op_class::MemWrite                 553040      0.29%     82.84% # Class of executed instruction
system.cpu1.op_class::FloatMemRead           19368373     10.08%     92.92% # Class of executed instruction
system.cpu1.op_class::FloatMemWrite          13602242      7.08%    100.00% # Class of executed instruction
system.cpu1.op_class::IprAccess                     0      0.00%    100.00% # Class of executed instruction
system.cpu1.op_class::InstPrefetch                  0      0.00%    100.00% # Class of executed instruction
system.cpu1.op_class::total                 192152037                       # Class of executed instruction
system.cpu2.Branches                          7988488                       # Number of branches fetched
system.cpu2.committedInsts                  129553845                       # Number of instructions committed
system.cpu2.committedOps                    192148496                       # Number of ops (including micro ops) committed
system.cpu2.dtb.rdAccesses                   22686234                       # TLB accesses on read requests
system.cpu2.dtb.rdMisses                         9369                       # TLB misses on read requests
system.cpu2.dtb.wrAccesses                   14155162                       # TLB accesses on write requests
system.cpu2.dtb.wrMisses                       787473                       # TLB misses on write requests
system.cpu2.idle_fraction                    0.703261                       # Percentage of idle cycles
system.cpu2.itb.rdAccesses                          0                       # TLB accesses on read requests
system.cpu2.itb.rdMisses                            0                       # TLB misses on read requests
system.cpu2.itb.wrAccesses                  197039477                       # TLB accesses on write requests
system.cpu2.itb.wrMisses                           85                       # TLB misses on write requests
system.cpu2.not_idle_fraction                0.296739                       # Percentage of non-idle cycles
system.cpu2.numCycles                      2238463929                       # number of cpu cycles simulated
system.cpu2.numWorkItemsCompleted                   0                       # number of work items this cpu completed
system.cpu2.numWorkItemsStarted                     0                       # number of work items this cpu started
system.cpu2.num_busy_cycles              664240349.928274                       # Number of busy cycles
system.cpu2.num_cc_register_reads            53120167                       # number of times the CC registers were read
system.cpu2.num_cc_register_writes           58927818                       # number of times the CC registers were written
system.cpu2.num_conditional_control_insts      7527988                       # number of instructions that are conditional controls
system.cpu2.num_fp_alu_accesses             102145841                       # Number of float alu accesses
system.cpu2.num_fp_insts                    102145841                       # number of float instructions
system.cpu2.num_fp_register_reads           141008816                       # number of times the floating registers were read
system.cpu2.num_fp_register_writes           88543459                       # number of times the floating registers were written
system.cpu2.num_func_calls                       1513                       # number of times a function call or return occured
system.cpu2.num_idle_cycles              1574223579.071726                       # Number of idle cycles
system.cpu2.num_int_alu_accesses            122897183                       # Number of integer alu accesses
system.cpu2.num_int_insts                   122897183                       # number of integer instructions
system.cpu2.num_int_register_reads          259014284                       # number of times the integer registers were read
system.cpu2.num_int_register_writes          81462545                       # number of times the integer registers were written
system.cpu2.num_load_insts                   22686231                       # Number of load instructions
system.cpu2.num_mem_refs                     36841393                       # number of memory refs
system.cpu2.num_store_insts                  14155162                       # Number of store instructions
system.cpu2.num_vec_alu_accesses                    0                       # Number of vector alu accesses
system.cpu2.num_vec_insts                           0                       # number of vector instructions
system.cpu2.num_vec_register_reads                  0                       # number of times the vector registers were read
system.cpu2.num_vec_register_writes                 0                       # number of times the vector registers were written
system.cpu2.op_class::No_OpClass                76833      0.04%      0.04% # Class of executed instruction
system.cpu2.op_class::IntAlu                108040544     56.23%     56.27% # Class of executed instruction
system.cpu2.op_class::IntMult                      62      0.00%     56.27% # Class of executed instruction
system.cpu2.op_class::IntDiv                    36001      0.02%     56.29% # Class of executed instruction
system.cpu2.op_class::FloatAdd               19365939     10.08%     66.36% # Class of executed instruction
system.cpu2.op_class::FloatCmp                      0      0.00%     66.36% # Class of executed instruction
system.cpu2.op_class::FloatCvt                     64      0.00%     66.36% # Class of executed instruction
system.cpu2.op_class::FloatMult                     0      0.00%     66.36% # Class of executed instruction
system.cpu2.op_class::FloatMultAcc                  0      0.00%     66.36% # Class of executed instruction
system.cpu2.op_class::FloatDiv                      0      0.00%     66.36% # Class of executed instruction
system.cpu2.op_class::FloatMisc                     0      0.00%     66.36% # Class of executed instruction
system.cpu2.op_class::FloatSqrt                     0      0.00%     66.36% # Class of executed instruction
system.cpu2.op_class::SimdAdd                     452      0.00%     66.36% # Class of executed instruction
system.cpu2.op_class::SimdAddAcc                    0      0.00%     66.36% # Class of executed instruction
system.cpu2.op_class::SimdAlu                     163      0.00%     66.37% # Class of executed instruction
system.cpu2.op_class::SimdCmp                       0      0.00%     66.37% # Class of executed instruction
system.cpu2.op_class::SimdCvt                     288      0.00%     66.37% # Class of executed instruction
system.cpu2.op_class::SimdMisc                    292      0.00%     66.37% # Class of executed instruction
system.cpu2.op_class::SimdMult                      0      0.00%     66.37% # Class of executed instruction
system.cpu2.op_class::SimdMultAcc                   0      0.00%     66.37% # Class of executed instruction
system.cpu2.op_class::SimdShift                   231      0.00%     66.37% # Class of executed instruction
system.cpu2.op_class::SimdShiftAcc                  0      0.00%     66.37% # Class of executed instruction
system.cpu2.op_class::SimdDiv                       0      0.00%     66.37% # Class of executed instruction
system.cpu2.op_class::SimdSqrt                      0      0.00%     66.37% # Class of executed instruction
system.cpu2.op_class::SimdFloatAdd           16252928      8.46%     74.82% # Class of executed instruction
system.cpu2.op_class::SimdFloatAlu                  0      0.00%     74.82% # Class of executed instruction
system.cpu2.op_class::SimdFloatCmp                  0      0.00%     74.82% # Class of executed instruction
system.cpu2.op_class::SimdFloatCvt                  0      0.00%     74.82% # Class of executed instruction
system.cpu2.op_class::SimdFloatDiv                  0      0.00%     74.82% # Class of executed instruction
system.cpu2.op_class::SimdFloatMisc                 0      0.00%     74.82% # Class of executed instruction
system.cpu2.op_class::SimdFloatMult          11534336      6.00%     80.83% # Class of executed instruction
system.cpu2.op_class::SimdFloatMultAcc              0      0.00%     80.83% # Class of executed instruction
system.cpu2.op_class::SimdFloatSqrt                 0      0.00%     80.83% # Class of executed instruction
system.cpu2.op_class::SimdReduceAdd                 0      0.00%     80.83% # Class of executed instruction
system.cpu2.op_class::SimdReduceAlu                 0      0.00%     80.83% # Class of executed instruction
system.cpu2.op_class::SimdReduceCmp                 0      0.00%     80.83% # Class of executed instruction
system.cpu2.op_class::SimdFloatReduceAdd            0      0.00%     80.83% # Class of executed instruction
system.cpu2.op_class::SimdFloatReduceCmp            0      0.00%     80.83% # Class of executed instruction
system.cpu2.op_class::SimdAes                       0      0.00%     80.83% # Class of executed instruction
system.cpu2.op_class::SimdAesMix                    0      0.00%     80.83% # Class of executed instruction
system.cpu2.op_class::SimdSha1Hash                  0      0.00%     80.83% # Class of executed instruction
system.cpu2.op_class::SimdSha1Hash2                 0      0.00%     80.83% # Class of executed instruction
system.cpu2.op_class::SimdSha256Hash                0      0.00%     80.83% # Class of executed instruction
system.cpu2.op_class::SimdSha256Hash2               0      0.00%     80.83% # Class of executed instruction
system.cpu2.op_class::SimdShaSigma2                 0      0.00%     80.83% # Class of executed instruction
system.cpu2.op_class::SimdShaSigma3                 0      0.00%     80.83% # Class of executed instruction
system.cpu2.op_class::SimdPredAlu                   0      0.00%     80.83% # Class of executed instruction
system.cpu2.op_class::MemRead                 3317930      1.73%     82.55% # Class of executed instruction
system.cpu2.op_class::MemWrite                 552956      0.29%     82.84% # Class of executed instruction
system.cpu2.op_class::FloatMemRead           19368301     10.08%     92.92% # Class of executed instruction
system.cpu2.op_class::FloatMemWrite          13602206      7.08%    100.00% # Class of executed instruction
system.cpu2.op_class::IprAccess                     0      0.00%    100.00% # Class of executed instruction
system.cpu2.op_class::InstPrefetch                  0      0.00%    100.00% # Class of executed instruction
system.cpu2.op_class::total                 192149526                       # Class of executed instruction
system.cpu3.Branches                          7988590                       # Number of branches fetched
system.cpu3.committedInsts                  129553492                       # Number of instructions committed
system.cpu3.committedOps                    192148632                       # Number of ops (including micro ops) committed
system.cpu3.dtb.rdAccesses                   22686372                       # TLB accesses on read requests
system.cpu3.dtb.rdMisses                         9362                       # TLB misses on read requests
system.cpu3.dtb.wrAccesses                   14155213                       # TLB accesses on write requests
system.cpu3.dtb.wrMisses                       787473                       # TLB misses on write requests
system.cpu3.idle_fraction                    0.701831                       # Percentage of idle cycles
system.cpu3.itb.rdAccesses                          0                       # TLB accesses on read requests
system.cpu3.itb.rdMisses                            0                       # TLB misses on read requests
system.cpu3.itb.wrAccesses                  197063095                       # TLB accesses on write requests
system.cpu3.itb.wrMisses                           84                       # TLB misses on write requests
system.cpu3.not_idle_fraction                0.298169                       # Percentage of non-idle cycles
system.cpu3.numCycles                      2238463804                       # number of cpu cycles simulated
system.cpu3.numWorkItemsCompleted                   0                       # number of work items this cpu completed
system.cpu3.numWorkItemsStarted                     0                       # number of work items this cpu started
system.cpu3.num_busy_cycles              667439964.116020                       # Number of busy cycles
system.cpu3.num_cc_register_reads            53120722                       # number of times the CC registers were read
system.cpu3.num_cc_register_writes           58926472                       # number of times the CC registers were written
system.cpu3.num_conditional_control_insts      7528063                       # number of instructions that are conditional controls
system.cpu3.num_fp_alu_accesses             102145933                       # Number of float alu accesses
system.cpu3.num_fp_insts                    102145933                       # number of float instructions
system.cpu3.num_fp_register_reads           141008966                       # number of times the floating registers were read
system.cpu3.num_fp_register_writes           88543535                       # number of times the floating registers were written
system.cpu3.num_func_calls                       1515                       # number of times a function call or return occured
system.cpu3.num_idle_cycles              1571023839.883980                       # Number of idle cycles
system.cpu3.num_int_alu_accesses            122897283                       # Number of integer alu accesses
system.cpu3.num_int_insts                   122897283                       # number of integer instructions
system.cpu3.num_int_register_reads          259014445                       # number of times the integer registers were read
system.cpu3.num_int_register_writes          81462465                       # number of times the integer registers were written
system.cpu3.num_load_insts                   22686368                       # Number of load instructions
system.cpu3.num_mem_refs                     36841581                       # number of memory refs
system.cpu3.num_store_insts                  14155213                       # Number of store instructions
system.cpu3.num_vec_alu_accesses                    0                       # Number of vector alu accesses
system.cpu3.num_vec_insts                           0                       # number of vector instructions
system.cpu3.num_vec_register_reads                  0                       # number of times the vector registers were read
system.cpu3.num_vec_register_writes                 0                       # number of times the vector registers were written
system.cpu3.op_class::No_OpClass                76842      0.04%      0.04% # Class of executed instruction
system.cpu3.op_class::IntAlu                108040442     56.23%     56.27% # Class of executed instruction
system.cpu3.op_class::IntMult                      39      0.00%     56.27% # Class of executed instruction
system.cpu3.op_class::IntDiv                    36008      0.02%     56.29% # Class of executed instruction
system.cpu3.op_class::FloatAdd               19365941     10.08%     66.36% # Class of executed instruction
system.cpu3.op_class::FloatCmp                      0      0.00%     66.36% # Class of executed instruction
system.cpu3.op_class::FloatCvt                     64      0.00%     66.36% # Class of executed instruction
system.cpu3.op_class::FloatMult                     0      0.00%     66.36% # Class of executed instruction
system.cpu3.op_class::FloatMultAcc                  0      0.00%     66.36% # Class of executed instruction
system.cpu3.op_class::FloatDiv                      0      0.00%     66.36% # Class of executed instruction
system.cpu3.op_class::FloatMisc                     0      0.00%     66.36% # Class of executed instruction
system.cpu3.op_class::FloatSqrt                     0      0.00%     66.36% # Class of executed instruction
system.cpu3.op_class::SimdAdd                     452      0.00%     66.36% # Class of executed instruction
system.cpu3.op_class::SimdAddAcc                    0      0.00%     66.36% # Class of executed instruction
system.cpu3.op_class::SimdAlu                     177      0.00%     66.36% # Class of executed instruction
system.cpu3.op_class::SimdCmp                       0      0.00%     66.36% # Class of executed instruction
system.cpu3.op_class::SimdCvt                     308      0.00%     66.37% # Class of executed instruction
system.cpu3.op_class::SimdMisc                    316      0.00%     66.37% # Class of executed instruction
system.cpu3.op_class::SimdMult                      0      0.00%     66.37% # Class of executed instruction
system.cpu3.op_class::SimdMultAcc                   0      0.00%     66.37% # Class of executed instruction
system.cpu3.op_class::SimdShift                   231      0.00%     66.37% # Class of executed instruction
system.cpu3.op_class::SimdShiftAcc                  0      0.00%     66.37% # Class of executed instruction
system.cpu3.op_class::SimdDiv                       0      0.00%     66.37% # Class of executed instruction
system.cpu3.op_class::SimdSqrt                      0      0.00%     66.37% # Class of executed instruction
system.cpu3.op_class::SimdFloatAdd           16252928      8.46%     74.82% # Class of executed instruction
system.cpu3.op_class::SimdFloatAlu                  0      0.00%     74.82% # Class of executed instruction
system.cpu3.op_class::SimdFloatCmp                  0      0.00%     74.82% # Class of executed instruction
system.cpu3.op_class::SimdFloatCvt                  0      0.00%     74.82% # Class of executed instruction
system.cpu3.op_class::SimdFloatDiv                  0      0.00%     74.82% # Class of executed instruction
system.cpu3.op_class::SimdFloatMisc                 0      0.00%     74.82% # Class of executed instruction
system.cpu3.op_class::SimdFloatMult          11534336      6.00%     80.83% # Class of executed instruction
system.cpu3.op_class::SimdFloatMultAcc              0      0.00%     80.83% # Class of executed instruction
system.cpu3.op_class::SimdFloatSqrt                 0      0.00%     80.83% # Class of executed instruction
system.cpu3.op_class::SimdReduceAdd                 0      0.00%     80.83% # Class of executed instruction
system.cpu3.op_class::SimdReduceAlu                 0      0.00%     80.83% # Class of executed instruction
system.cpu3.op_class::SimdReduceCmp                 0      0.00%     80.83% # Class of executed instruction
system.cpu3.op_class::SimdFloatReduceAdd            0      0.00%     80.83% # Class of executed instruction
system.cpu3.op_class::SimdFloatReduceCmp            0      0.00%     80.83% # Class of executed instruction
system.cpu3.op_class::SimdAes                       0      0.00%     80.83% # Class of executed instruction
system.cpu3.op_class::SimdAesMix                    0      0.00%     80.83% # Class of executed instruction
system.cpu3.op_class::SimdSha1Hash                  0      0.00%     80.83% # Class of executed instruction
system.cpu3.op_class::SimdSha1Hash2                 0      0.00%     80.83% # Class of executed instruction
system.cpu3.op_class::SimdSha256Hash                0      0.00%     80.83% # Class of executed instruction
system.cpu3.op_class::SimdSha256Hash2               0      0.00%     80.83% # Class of executed instruction
system.cpu3.op_class::SimdShaSigma2                 0      0.00%     80.83% # Class of executed instruction
system.cpu3.op_class::SimdShaSigma3                 0      0.00%     80.83% # Class of executed instruction
system.cpu3.op_class::SimdPredAlu                   0      0.00%     80.83% # Class of executed instruction
system.cpu3.op_class::MemRead                 3318051      1.73%     82.55% # Class of executed instruction
system.cpu3.op_class::MemWrite                 553001      0.29%     82.84% # Class of executed instruction
system.cpu3.op_class::FloatMemRead           19368317     10.08%     92.92% # Class of executed instruction
system.cpu3.op_class::FloatMemWrite          13602212      7.08%    100.00% # Class of executed instruction
system.cpu3.op_class::IprAccess                     0      0.00%    100.00% # Class of executed instruction
system.cpu3.op_class::InstPrefetch                  0      0.00%    100.00% # Class of executed instruction
system.cpu3.op_class::total                 192149665                       # Class of executed instruction
system.ruby.Directory_Controller.I.deallocTBE |     1092935     25.02%     25.02% |     1095639     25.08%     50.11% |     1091924     25.00%     75.11% |     1087251     24.89%    100.00%
system.ruby.Directory_Controller.I.deallocTBE::total      4367749                      
system.ruby.Directory_Controller.I_GetML1C1_0.Progress |      476417     25.05%     25.05% |      476654     25.06%     50.10% |      474896     24.97%     75.07% |      474270     24.93%    100.00%
system.ruby.Directory_Controller.I_GetML1C1_0.Progress::total      1902237                      
system.ruby.Directory_Controller.I_GetML1C1_0.Stallreqto_in |           0      0.00%      0.00% |           0      0.00%      0.00% |           3    100.00%    100.00% |           0      0.00%    100.00%
system.ruby.Directory_Controller.I_GetML1C1_0.Stallreqto_in::total            3                      
system.ruby.Directory_Controller.I_GetSL1C1_0.Progress |      617398     25.01%     25.01% |      619834     25.10%     50.11% |      617907     25.03%     75.14% |      613881     24.86%    100.00%
system.ruby.Directory_Controller.I_GetSL1C1_0.Progress::total      2469020                      
system.ruby.Directory_Controller.I_GetSL1C1_0.Stallreqto_in |         203     50.50%     50.50% |          82     20.40%     70.90% |          46     11.44%     82.34% |          71     17.66%    100.00%
system.ruby.Directory_Controller.I_GetSL1C1_0.Stallreqto_in::total          402                      
system.ruby.Directory_Controller.M.allocTBE |          27      8.85%      8.85% |          25      8.20%     17.05% |         107     35.08%     52.13% |         146     47.87%    100.00%
system.ruby.Directory_Controller.M.allocTBE::total          305                      
system.ruby.Directory_Controller.M.deallocTBE |      734822     25.03%     25.03% |      735344     25.05%     50.08% |      733130     24.97%     75.05% |      732280     24.95%    100.00%
system.ruby.Directory_Controller.M.deallocTBE::total      2935576                      
system.ruby.Directory_Controller.M_GetM.Progress |          17     11.49%     11.49% |          10      6.76%     18.24% |          44     29.73%     47.97% |          77     52.03%    100.00%
system.ruby.Directory_Controller.M_GetM.Progress::total          148                      
system.ruby.Directory_Controller.M_GetM.Stallreqto_in |           0      0.00%      0.00% |           0      0.00%      0.00% |          15     13.76%     13.76% |          94     86.24%    100.00%
system.ruby.Directory_Controller.M_GetM.Stallreqto_in::total          109                      
system.ruby.Directory_Controller.M_GetS.Progress |          10      6.37%      6.37% |          15      9.55%     15.92% |          63     40.13%     56.05% |          69     43.95%    100.00%
system.ruby.Directory_Controller.M_GetS.Progress::total          157                      
system.ruby.Directory_Controller.M_GetS.Stallreqto_in |           0      0.00%      0.00% |           0      0.00%      0.00% |          15     46.88%     46.88% |          17     53.12%    100.00%
system.ruby.Directory_Controller.M_GetS.Stallreqto_in::total           32                      
system.ruby.Directory_Controller.M_GetS_WBL1C1_0.Progress |          10      6.37%      6.37% |          15      9.55%     15.92% |          63     40.13%     56.05% |          69     43.95%    100.00%
system.ruby.Directory_Controller.M_GetS_WBL1C1_0.Progress::total          157                      
system.ruby.Directory_Controller.M_GetS_WBL1C1_0.Stallreqto_in |           2      6.06%      6.06% |           0      0.00%      6.06% |          10     30.30%     36.36% |          21     63.64%    100.00%
system.ruby.Directory_Controller.M_GetS_WBL1C1_0.Stallreqto_in::total           33                      
system.ruby.Directory_Controller.M_PutML1C1_0.Progress |      734188     25.03%     25.03% |      734752     25.05%     50.08% |      732446     24.97%     75.06% |      731520     24.94%    100.00%
system.ruby.Directory_Controller.M_PutML1C1_0.Progress::total      2932906                      
system.ruby.Directory_Controller.Progress |     2099797     25.02%     25.02% |     2103674     25.07%     50.09% |     2095655     24.97%     75.07% |     2092102     24.93%    100.00%
system.ruby.Directory_Controller.Progress::total      8391228                      
system.ruby.Directory_Controller.S.deallocTBE |      644015     25.01%     25.01% |      647143     25.13%     50.13% |      641906     24.92%     75.06% |      642353     24.94%    100.00%
system.ruby.Directory_Controller.S.deallocTBE::total      2575417                      
system.ruby.Directory_Controller.S_GetML1C1_0.Progress |           6      3.92%      3.92% |          18     11.76%     15.69% |          65     42.48%     58.17% |          64     41.83%    100.00%
system.ruby.Directory_Controller.S_GetML1C1_0.Progress::total          153                      
system.ruby.Directory_Controller.S_GetML1C1_0.Stallreqto_in |           8     66.67%     66.67% |           0      0.00%     66.67% |           1      8.33%     75.00% |           3     25.00%    100.00%
system.ruby.Directory_Controller.S_GetML1C1_0.Stallreqto_in::total           12                      
system.ruby.Directory_Controller.S_GetML1C1_1.Progress |      258379     25.01%     25.01% |      258662     25.04%     50.05% |      258123     24.99%     75.04% |      257866     24.96%    100.00%
system.ruby.Directory_Controller.S_GetML1C1_1.Progress::total      1033030                      
system.ruby.Directory_Controller.S_GetML1C1_2.Progress |           3     37.50%     37.50% |           0      0.00%     37.50% |           2     25.00%     62.50% |           3     37.50%    100.00%
system.ruby.Directory_Controller.S_GetML1C1_2.Progress::total            8                      
system.ruby.Directory_Controller.S_GetSL1C1_0.Progress |       13369     25.03%     25.03% |       13714     25.68%     50.71% |       12046     22.55%     73.26% |       14283     26.74%    100.00%
system.ruby.Directory_Controller.S_GetSL1C1_0.Progress::total        53412                      
system.ruby.Directory_Controller.S_GetSL1C1_0.Stallreqto_in |         108     22.09%     22.09% |         114     23.31%     45.40% |         110     22.49%     67.89% |         157     32.11%    100.00%
system.ruby.Directory_Controller.S_GetSL1C1_0.Stallreqto_in::total          489                      
system.ruby.Directory_Controller.Stallreqto_in |         321     29.72%     29.72% |         196     18.15%     47.87% |         200     18.52%     66.39% |         363     33.61%    100.00%
system.ruby.Directory_Controller.Stallreqto_in::total         1080                      
system.ruby.Directory_Controller.allocTBE |          27      8.85%      8.85% |          25      8.20%     17.05% |         107     35.08%     52.13% |         146     47.87%    100.00%
system.ruby.Directory_Controller.allocTBE::total          305                      
system.ruby.Directory_Controller.deallocTBE |     2471772     25.02%     25.02% |     2478126     25.09%     50.11% |     2466960     24.97%     75.08% |     2461884     24.92%    100.00%
system.ruby.Directory_Controller.deallocTBE::total      9878742                      
system.ruby.IFETCH.hit_latency_hist_seqr::bucket_size            1                      
system.ruby.IFETCH.hit_latency_hist_seqr::max_bucket            9                      
system.ruby.IFETCH.hit_latency_hist_seqr::samples   1343698537                      
system.ruby.IFETCH.hit_latency_hist_seqr |  1343698537    100.00%    100.00% |           0      0.00%    100.00% |           0      0.00%    100.00% |           0      0.00%    100.00% |           0      0.00%    100.00% |           0      0.00%    100.00% |           0      0.00%    100.00% |           0      0.00%    100.00% |           0      0.00%    100.00% |           0      0.00%    100.00%
system.ruby.IFETCH.hit_latency_hist_seqr::total   1343698537                      
system.ruby.IFETCH.latency_hist_seqr::bucket_size           32                      
system.ruby.IFETCH.latency_hist_seqr::max_bucket          319                      
system.ruby.IFETCH.latency_hist_seqr::samples   1343810058                      
system.ruby.IFETCH.latency_hist_seqr::mean     0.000000                      
system.ruby.IFETCH.latency_hist_seqr::stdev     0.004556                      
system.ruby.IFETCH.latency_hist_seqr     |  1343810057    100.00%    100.00% |           0      0.00%    100.00% |           0      0.00%    100.00% |           0      0.00%    100.00% |           0      0.00%    100.00% |           1      0.00%    100.00% |           0      0.00%    100.00% |           0      0.00%    100.00% |           0      0.00%    100.00% |           0      0.00%    100.00%
system.ruby.IFETCH.latency_hist_seqr::total   1343810058                      
system.ruby.IFETCH.miss_latency_hist_seqr::bucket_size           32                      
system.ruby.IFETCH.miss_latency_hist_seqr::max_bucket          319                      
system.ruby.IFETCH.miss_latency_hist_seqr::samples       111521                      
system.ruby.IFETCH.miss_latency_hist_seqr::mean     0.001497                      
system.ruby.IFETCH.miss_latency_hist_seqr::stdev     0.500078                      
system.ruby.IFETCH.miss_latency_hist_seqr |      111520    100.00%    100.00% |           0      0.00%    100.00% |           0      0.00%    100.00% |           0      0.00%    100.00% |           0      0.00%    100.00% |           1      0.00%    100.00% |           0      0.00%    100.00% |           0      0.00%    100.00% |           0      0.00%    100.00% |           0      0.00%    100.00%
system.ruby.IFETCH.miss_latency_hist_seqr::total       111521                      
system.ruby.L1Cache_Controller.I.allocI_load |      856985     33.97%     33.97% |      550794     21.83%     55.81% |      545276     21.62%     77.42% |      569534     22.58%    100.00%
system.ruby.L1Cache_Controller.I.allocI_load::total      2522589                      
system.ruby.L1Cache_Controller.I.allocI_store |      695180     36.54%     36.54% |      400514     21.05%     57.60% |      407009     21.39%     78.99% |      399676     21.01%    100.00%
system.ruby.L1Cache_Controller.I.allocI_store::total      1902379                      
system.ruby.L1Cache_Controller.I.deallocfwdfrom_in |     1551141     35.09%     35.09% |      950300     21.50%     56.58% |      951272     21.52%     78.10% |      968202     21.90%    100.00%
system.ruby.L1Cache_Controller.I.deallocfwdfrom_in::total      4420915                      
system.ruby.L1Cache_Controller.I_store.Progress |          17     50.00%     50.00% |           7     20.59%     70.59% |           6     17.65%     88.24% |           4     11.76%    100.00%
system.ruby.L1Cache_Controller.I_store.Progress::total           34                      
system.ruby.L1Cache_Controller.I_store.Stallfwdfrom_in |          22     26.51%     26.51% |          26     31.33%     57.83% |          19     22.89%     80.72% |          16     19.28%    100.00%
system.ruby.L1Cache_Controller.I_store.Stallfwdfrom_in::total           83                      
system.ruby.L1Cache_Controller.M.MloadMEvent |    70729524     62.90%     62.90% |    13897409     12.36%     75.26% |    13915865     12.38%     87.64% |    13897438     12.36%    100.00%
system.ruby.L1Cache_Controller.M.MloadMEvent::total    112440236                      
system.ruby.L1Cache_Controller.M.MstoreMEvent |    63389075     59.99%     59.99% |    14092875     13.34%     73.33% |    14090719     13.34%     86.66% |    14094091     13.34%    100.00%
system.ruby.L1Cache_Controller.M.MstoreMEvent::total    105666760                      
system.ruby.L1Cache_Controller.M.allocTBE |     1162671     39.64%     39.64% |      589821     20.11%     59.75% |      591885     20.18%     79.93% |      588529     20.07%    100.00%
system.ruby.L1Cache_Controller.M.allocTBE::total      2932906                      
system.ruby.L1Cache_Controller.M.externalstoreMrespfrom_in |     1163253     39.63%     39.63% |      590523     20.12%     59.74% |      592563     20.19%     79.93% |      589237     20.07%    100.00%
system.ruby.L1Cache_Controller.M.externalstoreMrespfrom_in::total      2935576                      
system.ruby.L1Cache_Controller.M_evict.Progress |     1162671     39.64%     39.64% |      589821     20.11%     59.75% |      591885     20.18%     79.93% |      588529     20.07%    100.00%
system.ruby.L1Cache_Controller.M_evict.Progress::total      2932906                      
system.ruby.L1Cache_Controller.M_evict.Stallmandatory_in |     5521472     39.64%     39.64% |     2801650     20.11%     59.75% |     2811515     20.18%     79.93% |     2795560     20.07%    100.00%
system.ruby.L1Cache_Controller.M_evict.Stallmandatory_in::total     13930197                      
system.ruby.L1Cache_Controller.MloadMEvent |    70729524     62.90%     62.90% |    13897409     12.36%     75.26% |    13915865     12.38%     87.64% |    13897438     12.36%    100.00%
system.ruby.L1Cache_Controller.MloadMEvent::total    112440236                      
system.ruby.L1Cache_Controller.MstoreMEvent |    63389075     59.99%     59.99% |    14092875     13.34%     73.33% |    14090719     13.34%     86.66% |    14094091     13.34%    100.00%
system.ruby.L1Cache_Controller.MstoreMEvent::total    105666760                      
system.ruby.L1Cache_Controller.Progress  |     2019177     37.02%     37.02% |     1140288     20.91%     57.93% |     1136794     20.84%     78.77% |     1157733     21.23%    100.00%
system.ruby.L1Cache_Controller.Progress::total      5453992                      
system.ruby.L1Cache_Controller.S.SloadSEvent |   803226393     56.67%     56.67% |   204726673     14.44%     71.11% |   204735420     14.44%     85.55% |   204753345     14.45%    100.00%
system.ruby.L1Cache_Controller.S.SloadSEvent::total   1417441831                      
system.ruby.L1Cache_Controller.S.allocTBE |      856442     33.97%     33.97% |      550407     21.83%     55.81% |      544863     21.61%     77.42% |      569156     22.58%    100.00%
system.ruby.L1Cache_Controller.S.allocTBE::total      2520868                      
system.ruby.L1Cache_Controller.S.deallocTBE |          57     36.31%     36.31% |          33     21.02%     57.32% |          36     22.93%     80.25% |          31     19.75%    100.00%
system.ruby.L1Cache_Controller.S.deallocTBE::total          157                      
system.ruby.L1Cache_Controller.S.externalloadSrespfrom_in |      856985     33.97%     33.97% |      550794     21.83%     55.81% |      545276     21.62%     77.42% |      569534     22.58%    100.00%
system.ruby.L1Cache_Controller.S.externalloadSrespfrom_in::total      2522589                      
system.ruby.L1Cache_Controller.S_evict.Progress |      388369     26.11%     26.11% |      360398     24.23%     50.33% |      359309     24.15%     74.48% |      379595     25.52%    100.00%
system.ruby.L1Cache_Controller.S_evict.Progress::total      1487671                      
system.ruby.L1Cache_Controller.S_evict.Stallmandatory_in |     1068045     26.10%     26.10% |      991286     24.22%     50.32% |      988958     24.17%     74.49% |     1043971     25.51%    100.00%
system.ruby.L1Cache_Controller.S_evict.Stallmandatory_in::total      4092260                      
system.ruby.L1Cache_Controller.S_store.Progress |      468120     45.30%     45.30% |      190062     18.39%     63.69% |      185594     17.96%     81.65% |      189605     18.35%    100.00%
system.ruby.L1Cache_Controller.S_store.Progress::total      1033381                      
system.ruby.L1Cache_Controller.S_store.Stallfwdfrom_in |           8     33.33%     33.33% |          10     41.67%     75.00% |           4     16.67%     91.67% |           2      8.33%    100.00%
system.ruby.L1Cache_Controller.S_store.Stallfwdfrom_in::total           24                      
system.ruby.L1Cache_Controller.SloadSEvent |   803226393     56.67%     56.67% |   204726673     14.44%     71.11% |   204735420     14.44%     85.55% |   204753345     14.45%    100.00%
system.ruby.L1Cache_Controller.SloadSEvent::total   1417441831                      
system.ruby.L1Cache_Controller.Stallfwdfrom_in |          30     28.04%     28.04% |          36     33.64%     61.68% |          23     21.50%     83.18% |          18     16.82%    100.00%
system.ruby.L1Cache_Controller.Stallfwdfrom_in::total          107                      
system.ruby.L1Cache_Controller.Stallmandatory_in |     6589517     36.56%     36.56% |     3792936     21.05%     57.61% |     3800473     21.09%     78.70% |     3839531     21.30%    100.00%
system.ruby.L1Cache_Controller.Stallmandatory_in::total     18022457                      
system.ruby.L1Cache_Controller.allocI_load |      856985     33.97%     33.97% |      550794     21.83%     55.81% |      545276     21.62%     77.42% |      569534     22.58%    100.00%
system.ruby.L1Cache_Controller.allocI_load::total      2522589                      
system.ruby.L1Cache_Controller.allocI_store |      695180     36.54%     36.54% |      400514     21.05%     57.60% |      407009     21.39%     78.99% |      399676     21.01%    100.00%
system.ruby.L1Cache_Controller.allocI_store::total      1902379                      
system.ruby.L1Cache_Controller.allocTBE  |     2019113     37.02%     37.02% |     1140228     20.91%     57.93% |     1136748     20.84%     78.77% |     1157685     21.23%    100.00%
system.ruby.L1Cache_Controller.allocTBE::total      5453774                      
system.ruby.L1Cache_Controller.deallocTBE |          57     36.31%     36.31% |          33     21.02%     57.32% |          36     22.93%     80.25% |          31     19.75%    100.00%
system.ruby.L1Cache_Controller.deallocTBE::total          157                      
system.ruby.L1Cache_Controller.deallocfwdfrom_in |     1551141     35.09%     35.09% |      950300     21.50%     56.58% |      951272     21.52%     78.10% |      968202     21.90%    100.00%
system.ruby.L1Cache_Controller.deallocfwdfrom_in::total      4420915                      
system.ruby.L1Cache_Controller.externalloadSrespfrom_in |      856985     33.97%     33.97% |      550794     21.83%     55.81% |      545276     21.62%     77.42% |      569534     22.58%    100.00%
system.ruby.L1Cache_Controller.externalloadSrespfrom_in::total      2522589                      
system.ruby.L1Cache_Controller.externalstoreMrespfrom_in |     1163253     39.63%     39.63% |      590523     20.12%     59.74% |      592563     20.19%     79.93% |      589237     20.07%    100.00%
system.ruby.L1Cache_Controller.externalstoreMrespfrom_in::total      2935576                      
system.ruby.LD.hit_latency_hist_seqr::bucket_size            1                      
system.ruby.LD.hit_latency_hist_seqr::max_bucket            9                      
system.ruby.LD.hit_latency_hist_seqr::samples    186183530                      
system.ruby.LD.hit_latency_hist_seqr     |   186183530    100.00%    100.00% |           0      0.00%    100.00% |           0      0.00%    100.00% |           0      0.00%    100.00% |           0      0.00%    100.00% |           0      0.00%    100.00% |           0      0.00%    100.00% |           0      0.00%    100.00% |           0      0.00%    100.00% |           0      0.00%    100.00%
system.ruby.LD.hit_latency_hist_seqr::total    186183530                      
system.ruby.LD.latency_hist_seqr::bucket_size            1                      
system.ruby.LD.latency_hist_seqr::max_bucket            9                      
system.ruby.LD.latency_hist_seqr::samples    188594598                      
system.ruby.LD.latency_hist_seqr         |   188594598    100.00%    100.00% |           0      0.00%    100.00% |           0      0.00%    100.00% |           0      0.00%    100.00% |           0      0.00%    100.00% |           0      0.00%    100.00% |           0      0.00%    100.00% |           0      0.00%    100.00% |           0      0.00%    100.00% |           0      0.00%    100.00%
system.ruby.LD.latency_hist_seqr::total     188594598                      
system.ruby.LD.miss_latency_hist_seqr::bucket_size            1                      
system.ruby.LD.miss_latency_hist_seqr::max_bucket            9                      
system.ruby.LD.miss_latency_hist_seqr::samples      2411068                      
system.ruby.LD.miss_latency_hist_seqr    |     2411068    100.00%    100.00% |           0      0.00%    100.00% |           0      0.00%    100.00% |           0      0.00%    100.00% |           0      0.00%    100.00% |           0      0.00%    100.00% |           0      0.00%    100.00% |           0      0.00%    100.00% |           0      0.00%    100.00% |           0      0.00%    100.00%
system.ruby.LD.miss_latency_hist_seqr::total      2411068                      
system.ruby.Locked_RMW_Read.hit_latency_hist_seqr::bucket_size            1                      
system.ruby.Locked_RMW_Read.hit_latency_hist_seqr::max_bucket            9                      
system.ruby.Locked_RMW_Read.hit_latency_hist_seqr::samples          471                      
system.ruby.Locked_RMW_Read.hit_latency_hist_seqr |         471    100.00%    100.00% |           0      0.00%    100.00% |           0      0.00%    100.00% |           0      0.00%    100.00% |           0      0.00%    100.00% |           0      0.00%    100.00% |           0      0.00%    100.00% |           0      0.00%    100.00% |           0      0.00%    100.00% |           0      0.00%    100.00%
system.ruby.Locked_RMW_Read.hit_latency_hist_seqr::total          471                      
system.ruby.Locked_RMW_Read.latency_hist_seqr::bucket_size            1                      
system.ruby.Locked_RMW_Read.latency_hist_seqr::max_bucket            9                      
system.ruby.Locked_RMW_Read.latency_hist_seqr::samples          705                      
system.ruby.Locked_RMW_Read.latency_hist_seqr |         705    100.00%    100.00% |           0      0.00%    100.00% |           0      0.00%    100.00% |           0      0.00%    100.00% |           0      0.00%    100.00% |           0      0.00%    100.00% |           0      0.00%    100.00% |           0      0.00%    100.00% |           0      0.00%    100.00% |           0      0.00%    100.00%
system.ruby.Locked_RMW_Read.latency_hist_seqr::total          705                      
system.ruby.Locked_RMW_Read.miss_latency_hist_seqr::bucket_size            1                      
system.ruby.Locked_RMW_Read.miss_latency_hist_seqr::max_bucket            9                      
system.ruby.Locked_RMW_Read.miss_latency_hist_seqr::samples          234                      
system.ruby.Locked_RMW_Read.miss_latency_hist_seqr |         234    100.00%    100.00% |           0      0.00%    100.00% |           0      0.00%    100.00% |           0      0.00%    100.00% |           0      0.00%    100.00% |           0      0.00%    100.00% |           0      0.00%    100.00% |           0      0.00%    100.00% |           0      0.00%    100.00% |           0      0.00%    100.00%
system.ruby.Locked_RMW_Read.miss_latency_hist_seqr::total          234                      
system.ruby.Locked_RMW_Write.hit_latency_hist_seqr::bucket_size            1                      
system.ruby.Locked_RMW_Write.hit_latency_hist_seqr::max_bucket            9                      
system.ruby.Locked_RMW_Write.hit_latency_hist_seqr::samples          705                      
system.ruby.Locked_RMW_Write.hit_latency_hist_seqr |         705    100.00%    100.00% |           0      0.00%    100.00% |           0      0.00%    100.00% |           0      0.00%    100.00% |           0      0.00%    100.00% |           0      0.00%    100.00% |           0      0.00%    100.00% |           0      0.00%    100.00% |           0      0.00%    100.00% |           0      0.00%    100.00%
system.ruby.Locked_RMW_Write.hit_latency_hist_seqr::total          705                      
system.ruby.Locked_RMW_Write.latency_hist_seqr::bucket_size            1                      
system.ruby.Locked_RMW_Write.latency_hist_seqr::max_bucket            9                      
system.ruby.Locked_RMW_Write.latency_hist_seqr::samples          705                      
system.ruby.Locked_RMW_Write.latency_hist_seqr |         705    100.00%    100.00% |           0      0.00%    100.00% |           0      0.00%    100.00% |           0      0.00%    100.00% |           0      0.00%    100.00% |           0      0.00%    100.00% |           0      0.00%    100.00% |           0      0.00%    100.00% |           0      0.00%    100.00% |           0      0.00%    100.00%
system.ruby.Locked_RMW_Write.latency_hist_seqr::total          705                      
system.ruby.RMW_Read.hit_latency_hist_seqr::bucket_size            1                      
system.ruby.RMW_Read.hit_latency_hist_seqr::max_bucket            9                      
system.ruby.RMW_Read.hit_latency_hist_seqr::samples      2118138                      
system.ruby.RMW_Read.hit_latency_hist_seqr |     2118138    100.00%    100.00% |           0      0.00%    100.00% |           0      0.00%    100.00% |           0      0.00%    100.00% |           0      0.00%    100.00% |           0      0.00%    100.00% |           0      0.00%    100.00% |           0      0.00%    100.00% |           0      0.00%    100.00% |           0      0.00%    100.00%
system.ruby.RMW_Read.hit_latency_hist_seqr::total      2118138                      
system.ruby.RMW_Read.latency_hist_seqr::bucket_size            1                      
system.ruby.RMW_Read.latency_hist_seqr::max_bucket            9                      
system.ruby.RMW_Read.latency_hist_seqr::samples      2118649                      
system.ruby.RMW_Read.latency_hist_seqr   |     2118649    100.00%    100.00% |           0      0.00%    100.00% |           0      0.00%    100.00% |           0      0.00%    100.00% |           0      0.00%    100.00% |           0      0.00%    100.00% |           0      0.00%    100.00% |           0      0.00%    100.00% |           0      0.00%    100.00% |           0      0.00%    100.00%
system.ruby.RMW_Read.latency_hist_seqr::total      2118649                      
system.ruby.RMW_Read.miss_latency_hist_seqr::bucket_size            1                      
system.ruby.RMW_Read.miss_latency_hist_seqr::max_bucket            9                      
system.ruby.RMW_Read.miss_latency_hist_seqr::samples          511                      
system.ruby.RMW_Read.miss_latency_hist_seqr |         511    100.00%    100.00% |           0      0.00%    100.00% |           0      0.00%    100.00% |           0      0.00%    100.00% |           0      0.00%    100.00% |           0      0.00%    100.00% |           0      0.00%    100.00% |           0      0.00%    100.00% |           0      0.00%    100.00% |           0      0.00%    100.00%
system.ruby.RMW_Read.miss_latency_hist_seqr::total          511                      
system.ruby.ST.hit_latency_hist_seqr::bucket_size            1                      
system.ruby.ST.hit_latency_hist_seqr::max_bucket            9                      
system.ruby.ST.hit_latency_hist_seqr::samples    103547446                      
system.ruby.ST.hit_latency_hist_seqr     |   103547446    100.00%    100.00% |           0      0.00%    100.00% |           0      0.00%    100.00% |           0      0.00%    100.00% |           0      0.00%    100.00% |           0      0.00%    100.00% |           0      0.00%    100.00% |           0      0.00%    100.00% |           0      0.00%    100.00% |           0      0.00%    100.00%
system.ruby.ST.hit_latency_hist_seqr::total    103547446                      
system.ruby.ST.latency_hist_seqr::bucket_size            1                      
system.ruby.ST.latency_hist_seqr::max_bucket            9                      
system.ruby.ST.latency_hist_seqr::samples    106482277                      
system.ruby.ST.latency_hist_seqr         |   106482277    100.00%    100.00% |           0      0.00%    100.00% |           0      0.00%    100.00% |           0      0.00%    100.00% |           0      0.00%    100.00% |           0      0.00%    100.00% |           0      0.00%    100.00% |           0      0.00%    100.00% |           0      0.00%    100.00% |           0      0.00%    100.00%
system.ruby.ST.latency_hist_seqr::total     106482277                      
system.ruby.ST.miss_latency_hist_seqr::bucket_size            1                      
system.ruby.ST.miss_latency_hist_seqr::max_bucket            9                      
system.ruby.ST.miss_latency_hist_seqr::samples      2934831                      
system.ruby.ST.miss_latency_hist_seqr    |     2934831    100.00%    100.00% |           0      0.00%    100.00% |           0      0.00%    100.00% |           0      0.00%    100.00% |           0      0.00%    100.00% |           0      0.00%    100.00% |           0      0.00%    100.00% |           0      0.00%    100.00% |           0      0.00%    100.00% |           0      0.00%    100.00%
system.ruby.ST.miss_latency_hist_seqr::total      2934831                      
system.ruby.dir_cntrl0.fwdFrom.avg_buf_msgs     0.002965                       # Average number of messages in buffer
system.ruby.dir_cntrl0.fwdFrom.avg_stall_time  2999.927244                       # Average number of cycles messages are stalled in this MB
system.ruby.dir_cntrl0.reqTo.avg_buf_msgs     0.001106                       # Average number of messages in buffer
system.ruby.dir_cntrl0.reqTo.avg_stall_time  3847.952358                       # Average number of cycles messages are stalled in this MB
system.ruby.dir_cntrl0.requestToMemory.avg_buf_msgs     0.000938                       # Average number of messages in buffer
system.ruby.dir_cntrl0.requestToMemory.avg_stall_time   499.999821                       # Average number of cycles messages are stalled in this MB
system.ruby.dir_cntrl0.respFrom.avg_buf_msgs     0.003660                       # Average number of messages in buffer
system.ruby.dir_cntrl0.respFrom.avg_stall_time  3000.025603                       # Average number of cycles messages are stalled in this MB
system.ruby.dir_cntrl0.respTo.avg_buf_msgs     0.000000                       # Average number of messages in buffer
system.ruby.dir_cntrl0.respTo.avg_stall_time  4489.579033                       # Average number of cycles messages are stalled in this MB
system.ruby.dir_cntrl0.responseFromMemory.avg_buf_msgs     0.001689                       # Average number of messages in buffer
system.ruby.dir_cntrl0.responseFromMemory.avg_stall_time   499.999797                       # Average number of cycles messages are stalled in this MB
system.ruby.dir_cntrl1.fwdFrom.avg_buf_msgs     0.002973                       # Average number of messages in buffer
system.ruby.dir_cntrl1.fwdFrom.avg_stall_time  2999.926590                       # Average number of cycles messages are stalled in this MB
system.ruby.dir_cntrl1.reqTo.avg_buf_msgs     0.001108                       # Average number of messages in buffer
system.ruby.dir_cntrl1.reqTo.avg_stall_time  4592.199953                       # Average number of cycles messages are stalled in this MB
system.ruby.dir_cntrl1.requestToMemory.avg_buf_msgs     0.000940                       # Average number of messages in buffer
system.ruby.dir_cntrl1.requestToMemory.avg_stall_time   499.999855                       # Average number of cycles messages are stalled in this MB
system.ruby.dir_cntrl1.respFrom.avg_buf_msgs     0.003669                       # Average number of messages in buffer
system.ruby.dir_cntrl1.respFrom.avg_stall_time  3000.022035                       # Average number of cycles messages are stalled in this MB
system.ruby.dir_cntrl1.respTo.avg_buf_msgs     0.000000                       # Average number of messages in buffer
system.ruby.dir_cntrl1.respTo.avg_stall_time  4208.409280                       # Average number of cycles messages are stalled in this MB
system.ruby.dir_cntrl1.responseFromMemory.avg_buf_msgs     0.001691                       # Average number of messages in buffer
system.ruby.dir_cntrl1.responseFromMemory.avg_stall_time   499.999831                       # Average number of cycles messages are stalled in this MB
system.ruby.dir_cntrl2.fwdFrom.avg_buf_msgs     0.002959                       # Average number of messages in buffer
system.ruby.dir_cntrl2.fwdFrom.avg_stall_time  2999.970748                       # Average number of cycles messages are stalled in this MB
system.ruby.dir_cntrl2.reqTo.avg_buf_msgs     0.001103                       # Average number of messages in buffer
system.ruby.dir_cntrl2.reqTo.avg_stall_time  4518.716602                       # Average number of cycles messages are stalled in this MB
system.ruby.dir_cntrl2.requestToMemory.avg_buf_msgs     0.000936                       # Average number of messages in buffer
system.ruby.dir_cntrl2.requestToMemory.avg_stall_time   499.999998                       # Average number of cycles messages are stalled in this MB
system.ruby.dir_cntrl2.respFrom.avg_buf_msgs     0.003654                       # Average number of messages in buffer
system.ruby.dir_cntrl2.respFrom.avg_stall_time  3000.026301                       # Average number of cycles messages are stalled in this MB
system.ruby.dir_cntrl2.respTo.avg_buf_msgs     0.000000                       # Average number of messages in buffer
system.ruby.dir_cntrl2.respTo.avg_stall_time  4257.589202                       # Average number of cycles messages are stalled in this MB
system.ruby.dir_cntrl2.responseFromMemory.avg_buf_msgs     0.001685                       # Average number of messages in buffer
system.ruby.dir_cntrl2.responseFromMemory.avg_stall_time   499.999970                       # Average number of cycles messages are stalled in this MB
system.ruby.dir_cntrl3.fwdFrom.avg_buf_msgs     0.002953                       # Average number of messages in buffer
system.ruby.dir_cntrl3.fwdFrom.avg_stall_time  2999.970324                       # Average number of cycles messages are stalled in this MB
system.ruby.dir_cntrl3.reqTo.avg_buf_msgs     0.001101                       # Average number of messages in buffer
system.ruby.dir_cntrl3.reqTo.avg_stall_time  5314.559201                       # Average number of cycles messages are stalled in this MB
system.ruby.dir_cntrl3.requestToMemory.avg_buf_msgs     0.000934                       # Average number of messages in buffer
system.ruby.dir_cntrl3.requestToMemory.avg_stall_time   499.999889                       # Average number of cycles messages are stalled in this MB
system.ruby.dir_cntrl3.respFrom.avg_buf_msgs     0.003647                       # Average number of messages in buffer
system.ruby.dir_cntrl3.respFrom.avg_stall_time  3000.025243                       # Average number of cycles messages are stalled in this MB
system.ruby.dir_cntrl3.respTo.avg_buf_msgs     0.000000                       # Average number of messages in buffer
system.ruby.dir_cntrl3.respTo.avg_stall_time  4449.002849                       # Average number of cycles messages are stalled in this MB
system.ruby.dir_cntrl3.responseFromMemory.avg_buf_msgs     0.001681                       # Average number of messages in buffer
system.ruby.dir_cntrl3.responseFromMemory.avg_stall_time   499.999865                       # Average number of cycles messages are stalled in this MB
system.ruby.hit_latency_hist_seqr::bucket_size            1                      
system.ruby.hit_latency_hist_seqr::max_bucket            9                      
system.ruby.hit_latency_hist_seqr::samples   1635548827                      
system.ruby.hit_latency_hist_seqr        |  1635548827    100.00%    100.00% |           0      0.00%    100.00% |           0      0.00%    100.00% |           0      0.00%    100.00% |           0      0.00%    100.00% |           0      0.00%    100.00% |           0      0.00%    100.00% |           0      0.00%    100.00% |           0      0.00%    100.00% |           0      0.00%    100.00%
system.ruby.hit_latency_hist_seqr::total   1635548827                      
system.ruby.l1_cntrl0.cache.demand_accesses            0                       # Number of cache demand accesses
system.ruby.l1_cntrl0.cache.demand_hits             0                       # Number of cache demand hits
system.ruby.l1_cntrl0.cache.demand_misses            0                       # Number of cache demand misses
system.ruby.l1_cntrl0.fully_busy_cycles            14                       # cycles for which number of transistions == max transitions
system.ruby.l1_cntrl0.fwdFrom.avg_buf_msgs     0.001096                       # Average number of messages in buffer
system.ruby.l1_cntrl0.fwdFrom.avg_stall_time  6503.374360                       # Average number of cycles messages are stalled in this MB
system.ruby.l1_cntrl0.mandatoryQueue.avg_buf_msgs     0.449056                       # Average number of messages in buffer
system.ruby.l1_cntrl0.mandatoryQueue.avg_stall_time  2684.003787                       # Average number of cycles messages are stalled in this MB
system.ruby.l1_cntrl0.reqTo.avg_buf_msgs     0.001595                       # Average number of messages in buffer
system.ruby.l1_cntrl0.reqTo.avg_stall_time   500.000000                       # Average number of cycles messages are stalled in this MB
system.ruby.l1_cntrl0.respFrom.avg_buf_msgs     0.000902                       # Average number of messages in buffer
system.ruby.l1_cntrl0.respFrom.avg_stall_time 16606.410417                       # Average number of cycles messages are stalled in this MB
system.ruby.l1_cntrl0.respTo.avg_buf_msgs     0.000000                       # Average number of messages in buffer
system.ruby.l1_cntrl0.respTo.avg_stall_time   150.302873                       # Average number of cycles messages are stalled in this MB
system.ruby.l1_cntrl1.cache.demand_accesses            0                       # Number of cache demand accesses
system.ruby.l1_cntrl1.cache.demand_hits             0                       # Number of cache demand hits
[...]
system.mem_ctrls1.wrQLenPdf::15                 11753                       # What write queue length does an incoming req see
system.mem_ctrls1.wrQLenPdf::16                 12589                       # What write queue length does an incoming req see
system.mem_ctrls1.wrQLenPdf::17                 37297                       # What write queue length does an incoming req see
system.mem_ctrls1.wrQLenPdf::18                 42502                       # What write queue length does an incoming req see
system.mem_ctrls1.wrQLenPdf::19                 43319                       # What write queue length does an incoming req see
system.mem_ctrls1.wrQLenPdf::20                 43293                       # What write queue length does an incoming req see
system.mem_ctrls1.wrQLenPdf::21                 43279                       # What write queue length does an incoming req see
system.mem_ctrls1.wrQLenPdf::22                 43267                       # What write queue length does an incoming req see
system.mem_ctrls1.wrQLenPdf::23                 43278                       # What write queue length does an incoming req see
system.mem_ctrls1.wrQLenPdf::24                 43219                       # What write queue length does an incoming req see
system.mem_ctrls1.wrQLenPdf::25                 43314                       # What write queue length does an incoming req see
system.mem_ctrls1.wrQLenPdf::26                 43294                       # What write queue length does an incoming req see
system.mem_ctrls1.wrQLenPdf::27                 43191                       # What write queue length does an incoming req see
system.mem_ctrls1.wrQLenPdf::28                 43022                       # What write queue length does an incoming req see
system.mem_ctrls1.wrQLenPdf::29                 42846                       # What write queue length does an incoming req see
system.mem_ctrls1.wrQLenPdf::30                 42696                       # What write queue length does an incoming req see
system.mem_ctrls1.wrQLenPdf::31                 42581                       # What write queue length does an incoming req see
system.mem_ctrls1.wrQLenPdf::32                 42566                       # What write queue length does an incoming req see
system.mem_ctrls1.wrQLenPdf::33                   101                       # What write queue length does an incoming req see
system.mem_ctrls1.wrQLenPdf::34                    11                       # What write queue length does an incoming req see
system.mem_ctrls1.wrQLenPdf::35                     2                       # What write queue length does an incoming req see
system.mem_ctrls1.wrQLenPdf::36                     1                       # What write queue length does an incoming req see
system.mem_ctrls1.wrQLenPdf::37                     0                       # What write queue length does an incoming req see
system.mem_ctrls1.wrQLenPdf::38                     0                       # What write queue length does an incoming req see
system.mem_ctrls1.wrQLenPdf::39                     0                       # What write queue length does an incoming req see
system.mem_ctrls1.wrQLenPdf::40                     0                       # What write queue length does an incoming req see
system.mem_ctrls1.wrQLenPdf::41                     0                       # What write queue length does an incoming req see
system.mem_ctrls1.wrQLenPdf::42                     0                       # What write queue length does an incoming req see
system.mem_ctrls1.wrQLenPdf::43                     0                       # What write queue length does an incoming req see
system.mem_ctrls1.wrQLenPdf::44                     0                       # What write queue length does an incoming req see
system.mem_ctrls1.wrQLenPdf::45                     0                       # What write queue length does an incoming req see
system.mem_ctrls1.wrQLenPdf::46                     0                       # What write queue length does an incoming req see
system.mem_ctrls1.wrQLenPdf::47                     0                       # What write queue length does an incoming req see
system.mem_ctrls1.wrQLenPdf::48                     0                       # What write queue length does an incoming req see
system.mem_ctrls1.wrQLenPdf::49                     0                       # What write queue length does an incoming req see
system.mem_ctrls1.wrQLenPdf::50                     0                       # What write queue length does an incoming req see
system.mem_ctrls1.wrQLenPdf::51                     0                       # What write queue length does an incoming req see
system.mem_ctrls1.wrQLenPdf::52                     0                       # What write queue length does an incoming req see
system.mem_ctrls1.wrQLenPdf::53                     0                       # What write queue length does an incoming req see
system.mem_ctrls1.wrQLenPdf::54                     0                       # What write queue length does an incoming req see
system.mem_ctrls1.wrQLenPdf::55                     0                       # What write queue length does an incoming req see
system.mem_ctrls1.wrQLenPdf::56                     0                       # What write queue length does an incoming req see
system.mem_ctrls1.wrQLenPdf::57                     0                       # What write queue length does an incoming req see
system.mem_ctrls1.wrQLenPdf::58                     0                       # What write queue length does an incoming req see
system.mem_ctrls1.wrQLenPdf::59                     0                       # What write queue length does an incoming req see
system.mem_ctrls1.wrQLenPdf::60                     0                       # What write queue length does an incoming req see
system.mem_ctrls1.wrQLenPdf::61                     0                       # What write queue length does an incoming req see
system.mem_ctrls1.wrQLenPdf::62                     0                       # What write queue length does an incoming req see
system.mem_ctrls1.wrQLenPdf::63                     0                       # What write queue length does an incoming req see
system.mem_ctrls1.bytesPerActivate::samples       902089                       # Bytes accessed per row activation
system.mem_ctrls1.bytesPerActivate::mean   130.762016                       # Bytes accessed per row activation
system.mem_ctrls1.bytesPerActivate::gmean    96.733592                       # Bytes accessed per row activation
system.mem_ctrls1.bytesPerActivate::stdev   160.919110                       # Bytes accessed per row activation
system.mem_ctrls1.bytesPerActivate::0-127       551396     61.12%     61.12% # Bytes accessed per row activation
system.mem_ctrls1.bytesPerActivate::128-255       266758     29.57%     90.70% # Bytes accessed per row activation
system.mem_ctrls1.bytesPerActivate::256-383        30149      3.34%     94.04% # Bytes accessed per row activation
system.mem_ctrls1.bytesPerActivate::384-511        14905      1.65%     95.69% # Bytes accessed per row activation
system.mem_ctrls1.bytesPerActivate::512-639        10291      1.14%     96.83% # Bytes accessed per row activation
system.mem_ctrls1.bytesPerActivate::640-767         6135      0.68%     97.51% # Bytes accessed per row activation
system.mem_ctrls1.bytesPerActivate::768-895         4767      0.53%     98.04% # Bytes accessed per row activation
system.mem_ctrls1.bytesPerActivate::896-1023         4601      0.51%     98.55% # Bytes accessed per row activation
system.mem_ctrls1.bytesPerActivate::1024-1151        13087      1.45%    100.00% # Bytes accessed per row activation
system.mem_ctrls1.bytesPerActivate::total       902089                       # Bytes accessed per row activation
system.mem_ctrls1.rdPerTurnAround::samples        42555                       # Reads before turning the bus around for writes
system.mem_ctrls1.rdPerTurnAround::mean     26.687228                       # Reads before turning the bus around for writes
system.mem_ctrls1.rdPerTurnAround::stdev    17.083103                       # Reads before turning the bus around for writes
system.mem_ctrls1.rdPerTurnAround::0-15          5675     13.34%     13.34% # Reads before turning the bus around for writes
system.mem_ctrls1.rdPerTurnAround::16-31        25658     60.29%     73.63% # Reads before turning the bus around for writes
system.mem_ctrls1.rdPerTurnAround::32-47         7763     18.24%     91.87% # Reads before turning the bus around for writes
system.mem_ctrls1.rdPerTurnAround::48-63         1960      4.61%     96.48% # Reads before turning the bus around for writes
system.mem_ctrls1.rdPerTurnAround::64-79          708      1.66%     98.14% # Reads before turning the bus around for writes
system.mem_ctrls1.rdPerTurnAround::80-95          344      0.81%     98.95% # Reads before turning the bus around for writes
system.mem_ctrls1.rdPerTurnAround::96-111          179      0.42%     99.37% # Reads before turning the bus around for writes
system.mem_ctrls1.rdPerTurnAround::112-127          109      0.26%     99.63% # Reads before turning the bus around for writes
system.mem_ctrls1.rdPerTurnAround::128-143           65      0.15%     99.78% # Reads before turning the bus around for writes
system.mem_ctrls1.rdPerTurnAround::144-159           47      0.11%     99.89% # Reads before turning the bus around for writes
system.mem_ctrls1.rdPerTurnAround::160-175           22      0.05%     99.94% # Reads before turning the bus around for writes
system.mem_ctrls1.rdPerTurnAround::176-191           12      0.03%     99.97% # Reads before turning the bus around for writes
system.mem_ctrls1.rdPerTurnAround::192-207            6      0.01%     99.98% # Reads before turning the bus around for writes
system.mem_ctrls1.rdPerTurnAround::224-239            4      0.01%     99.99% # Reads before turning the bus around for writes
system.mem_ctrls1.rdPerTurnAround::240-255            2      0.00%    100.00% # Reads before turning the bus around for writes
system.mem_ctrls1.rdPerTurnAround::368-383            1      0.00%    100.00% # Reads before turning the bus around for writes
system.mem_ctrls1.rdPerTurnAround::total        42555                       # Reads before turning the bus around for writes
system.mem_ctrls1.wrPerTurnAround::samples        42555                       # Writes before turning the bus around for reads
system.mem_ctrls1.wrPerTurnAround::mean     16.623311                       # Writes before turning the bus around for reads
system.mem_ctrls1.wrPerTurnAround::gmean    16.594536                       # Writes before turning the bus around for reads
system.mem_ctrls1.wrPerTurnAround::stdev     0.999761                       # Writes before turning the bus around for reads
system.mem_ctrls1.wrPerTurnAround::16           30049     70.61%     70.61% # Writes before turning the bus around for reads
system.mem_ctrls1.wrPerTurnAround::17             472      1.11%     71.72% # Writes before turning the bus around for reads
system.mem_ctrls1.wrPerTurnAround::18           10281     24.16%     95.88% # Writes before turning the bus around for reads
system.mem_ctrls1.wrPerTurnAround::19            1551      3.64%     99.53% # Writes before turning the bus around for reads
system.mem_ctrls1.wrPerTurnAround::20             176      0.41%     99.94% # Writes before turning the bus around for reads
system.mem_ctrls1.wrPerTurnAround::21              23      0.05%     99.99% # Writes before turning the bus around for reads
system.mem_ctrls1.wrPerTurnAround::22               2      0.00%    100.00% # Writes before turning the bus around for reads
system.mem_ctrls1.wrPerTurnAround::23               1      0.00%    100.00% # Writes before turning the bus around for reads
system.mem_ctrls1.wrPerTurnAround::total        42555                       # Writes before turning the bus around for reads
system.mem_ctrls1.bytesReadDRAM              72685696                       # Total number of bytes read from DRAM
system.mem_ctrls1.bytesReadWrQ               14922752                       # Total number of bytes read from write queue
system.mem_ctrls1.bytesWritten               45273920                       # Total number of bytes written to DRAM
system.mem_ctrls1.bytesReadSys               87608448                       # Total read bytes from the system interface side
system.mem_ctrls1.bytesWrittenSys            47025088                       # Total written bytes from the system interface side
system.mem_ctrls1.avgRdBW                       64.94                       # Average DRAM read bandwidth in MiByte/s
system.mem_ctrls1.avgWrBW                       40.45                       # Average achieved write bandwidth in MiByte/s
system.mem_ctrls1.avgRdBWSys                    78.27                       # Average system read bandwidth in MiByte/s
system.mem_ctrls1.avgWrBWSys                    42.01                       # Average system write bandwidth in MiByte/s
system.mem_ctrls1.peakBW                     12800.00                       # Theoretical peak bandwidth in MiByte/s
system.mem_ctrls1.busUtil                        0.82                       # Data bus utilization in percentage
system.mem_ctrls1.busUtilRead                    0.51                       # Data bus utilization in percentage for reads
system.mem_ctrls1.busUtilWrite                   0.32                       # Data bus utilization in percentage for writes
system.mem_ctrls1.totGap                 1119304163000                       # Total gap between requests
system.mem_ctrls1.avgGap                    532077.43                       # Average gap between requests
system.mem_ctrls1.masterReadBytes::.ruby.dir_cntrl1     72685696                       # Per-master bytes read from memory
system.mem_ctrls1.masterWriteBytes::.ruby.dir_cntrl1     45273920                       # Per-master bytes write to memory
system.mem_ctrls1.masterReadRate::.ruby.dir_cntrl1 64938264.765153348446                       # Per-master bytes read from memory rate (Bytes/sec)
system.mem_ctrls1.masterWriteRate::.ruby.dir_cntrl1 40448258.264134548604                       # Per-master bytes write to memory rate (Bytes/sec)
system.mem_ctrls1.masterReadAccesses::.ruby.dir_cntrl1      1368882                       # Per-master read serviced memory accesses
system.mem_ctrls1.masterWriteAccesses::.ruby.dir_cntrl1       734767                       # Per-master write serviced memory accesses
system.mem_ctrls1.masterReadTotalLat::.ruby.dir_cntrl1  40778526249                       # Per-master read total memory access latency
system.mem_ctrls1.masterWriteTotalLat::.ruby.dir_cntrl1 27221900113784                       # Per-master write total memory access latency
system.mem_ctrls1.masterReadAvgLat::.ruby.dir_cntrl1     29789.66                       # Per-master read average memory access latency
system.mem_ctrls1.masterWriteAvgLat::.ruby.dir_cntrl1  37048343.37                       # Per-master write average memory access latency
system.mem_ctrls1.pageHitRate                   51.06                       # Row buffer hit rate, read and write combined
system.mem_ctrls1.rank1.actEnergy          3235833720                       # Energy for activate commands per rank (pJ)
system.mem_ctrls1.rank1.preEnergy          1719875025                       # Energy for precharge commands per rank (pJ)
system.mem_ctrls1.rank1.readEnergy         4183276020                       # Energy for read commands per rank (pJ)
system.mem_ctrls1.rank1.writeEnergy        1844962020                       # Energy for write commands per rank (pJ)
system.mem_ctrls1.rank1.refreshEnergy    88356343920.000015                       # Energy for refresh commands per rank (pJ)
system.mem_ctrls1.rank1.actBackEnergy    241710508110                       # Energy for active background per rank (pJ)
system.mem_ctrls1.rank1.preBackEnergy    226267260960                       # Energy for precharge background per rank (pJ)
system.mem_ctrls1.rank1.actPowerDownEnergy            0                       # Energy for active power-down per rank (pJ)
system.mem_ctrls1.rank1.prePowerDownEnergy            0                       # Energy for precharge power-down per rank (pJ)
system.mem_ctrls1.rank1.selfRefreshEnergy            0                       # Energy for self refresh per rank (pJ)
system.mem_ctrls1.rank1.totalEnergy      567318059775                       # Total energy per rank (pJ)
system.mem_ctrls1.rank1.averagePower       506.848698                       # Core power per rank (mW)
system.mem_ctrls1.rank1.totalIdleTime               0                       # Total Idle time Per DRAM Rank
system.mem_ctrls1.rank1.memoryStateTime::IDLE 585916025016                       # Time in different power states
system.mem_ctrls1.rank1.memoryStateTime::REF  37375780000                       # Time in different power states
system.mem_ctrls1.rank1.memoryStateTime::SREF            0                       # Time in different power states
system.mem_ctrls1.rank1.memoryStateTime::PRE_PDN            0                       # Time in different power states
system.mem_ctrls1.rank1.memoryStateTime::ACT 496012756984                       # Time in different power states
system.mem_ctrls1.rank1.memoryStateTime::ACT_PDN            0                       # Time in different power states
system.mem_ctrls1.rank0.actEnergy          3205117440                       # Energy for activate commands per rank (pJ)
system.mem_ctrls1.rank0.preEnergy          1703552730                       # Energy for precharge commands per rank (pJ)
system.mem_ctrls1.rank0.readEnergy         3925721940                       # Energy for read commands per rank (pJ)
system.mem_ctrls1.rank0.writeEnergy        1847692080                       # Energy for write commands per rank (pJ)
system.mem_ctrls1.rank0.refreshEnergy    88356343920.000015                       # Energy for refresh commands per rank (pJ)
system.mem_ctrls1.rank0.actBackEnergy    229765251810                       # Energy for active background per rank (pJ)
system.mem_ctrls1.rank0.preBackEnergy    236326424160                       # Energy for precharge background per rank (pJ)
system.mem_ctrls1.rank0.actPowerDownEnergy            0                       # Energy for active power-down per rank (pJ)
system.mem_ctrls1.rank0.prePowerDownEnergy            0                       # Energy for precharge power-down per rank (pJ)
system.mem_ctrls1.rank0.selfRefreshEnergy            0                       # Energy for self refresh per rank (pJ)
system.mem_ctrls1.rank0.totalEnergy      565130104080                       # Total energy per rank (pJ)
system.mem_ctrls1.rank0.averagePower       504.893952                       # Core power per rank (mW)
system.mem_ctrls1.rank0.totalIdleTime               0                       # Total Idle time Per DRAM Rank
system.mem_ctrls1.rank0.memoryStateTime::IDLE 612184303188                       # Time in different power states
system.mem_ctrls1.rank0.memoryStateTime::REF  37375780000                       # Time in different power states
system.mem_ctrls1.rank0.memoryStateTime::SREF            0                       # Time in different power states
system.mem_ctrls1.rank0.memoryStateTime::PRE_PDN            0                       # Time in different power states
system.mem_ctrls1.rank0.memoryStateTime::ACT 469744478812                       # Time in different power states
system.mem_ctrls1.rank0.memoryStateTime::ACT_PDN            0                       # Time in different power states
system.mem_ctrls1.power_state.pwrStateResidencyTicks::UNDEFINED 1119304562000                       # Cumulative time (in ticks) in various power states
system.cpu_voltage_domain.voltage                   1                       # Voltage in Volts

---------- End Simulation Statistics   ----------
