
---------- Begin Simulation Statistics ----------
final_tick                               99128685432001                       # Number of ticks from beginning of simulation (restored from checkpoints and never reset)
host_inst_rate                                7278152                       # Simulator instruction rate (inst/s)
host_mem_usage                                1504200                       # Number of bytes of host memory used
host_op_rate                                  7446726                       # Simulator op (including micro ops) rate (op/s)
host_seconds                                   692.42                       # Real time elapsed on the host
host_tick_rate                               95754191                       # Simulator tick rate (ticks/s)
sim_freq                                 1000000000000                       # Frequency of simulated ticks
sim_insts                                  5039507989                       # Number of instructions simulated
sim_ops                                    5156232315                       # Number of ops (including micro ops) simulated
sim_seconds                                  0.066302                       # Number of seconds simulated
sim_ticks                                 66301736501                       # Number of ticks simulated
system.cpu0.committedInsts                          0                       # Number of instructions committed
system.cpu0.dtb.rdAccesses                          0                       # TLB accesses on read requests
system.cpu0.dtb.rdMisses                            0                       # TLB misses on read requests
system.cpu0.dtb.wrAccesses                          0                       # TLB accesses on write requests
system.cpu0.dtb.wrMisses                            0                       # TLB misses on write requests
system.cpu0.itb.rdAccesses                          0                       # TLB accesses on read requests
system.cpu0.itb.rdMisses                            0                       # TLB misses on read requests
system.cpu0.itb.wrAccesses                          0                       # TLB accesses on write requests
system.cpu0.itb.wrMisses                            0                       # TLB misses on write requests
system.cpu0.kern.inst.arm                           0                       # number of arm instructions executed
system.cpu0.kern.inst.quiesce                       0                       # number of quiesce instructions executed
system.cpu0.numCoalescedMMIO                        0                       # number of coalesced memory mapped IO requests
system.cpu0.numCycles                               0                       # number of cpu cycles simulated
system.cpu0.numExitSignal                           0                       # exits due to signal delivery
system.cpu0.numHalt                                 0                       # number of VM exits due to wait for interrupt instructions
system.cpu0.numHypercalls                           0                       # number of hypercalls
system.cpu0.numIO                                   0                       # number of VM exits due to legacy IO
system.cpu0.numInterrupts                           0                       # number of interrupts delivered
system.cpu0.numMMIO                                 0                       # number of VM exits due to memory mapped IO
system.cpu0.numVMExits                              0                       # total number of KVM exits
system.cpu0.numVMHalfEntries                        0                       # number of KVM entries to finalize pending operations
system.cpu0.numWorkItemsCompleted                   0                       # number of work items this cpu completed
system.cpu0.numWorkItemsStarted                     0                       # number of work items this cpu started
system.cpu1.committedInsts                          0                       # Number of instructions committed
system.cpu1.dtb.rdAccesses                          0                       # TLB accesses on read requests
system.cpu1.dtb.rdMisses                            0                       # TLB misses on read requests
system.cpu1.dtb.wrAccesses                          0                       # TLB accesses on write requests
system.cpu1.dtb.wrMisses                            0                       # TLB misses on write requests
system.cpu1.itb.rdAccesses                          0                       # TLB accesses on read requests
system.cpu1.itb.rdMisses                            0                       # TLB misses on read requests
system.cpu1.itb.wrAccesses                          0                       # TLB accesses on write requests
system.cpu1.itb.wrMisses                            0                       # TLB misses on write requests
system.cpu1.kern.inst.arm                           0                       # number of arm instructions executed
system.cpu1.kern.inst.quiesce                       0                       # number of quiesce instructions executed
system.cpu1.numCoalescedMMIO                        0                       # number of coalesced memory mapped IO requests
system.cpu1.numCycles                               0                       # number of cpu cycles simulated
system.cpu1.numExitSignal                           0                       # exits due to signal delivery
system.cpu1.numHalt                                 0                       # number of VM exits due to wait for interrupt instructions
system.cpu1.numHypercalls                           0                       # number of hypercalls
system.cpu1.numIO                                   0                       # number of VM exits due to legacy IO
system.cpu1.numInterrupts                           0                       # number of interrupts delivered
system.cpu1.numMMIO                                 0                       # number of VM exits due to memory mapped IO
system.cpu1.numVMExits                              0                       # total number of KVM exits
system.cpu1.numVMHalfEntries                        0                       # number of KVM entries to finalize pending operations
system.cpu1.numWorkItemsCompleted                   0                       # number of work items this cpu completed
system.cpu1.numWorkItemsStarted                     0                       # number of work items this cpu started
system.cpu2.committedInsts                          0                       # Number of instructions committed
system.cpu2.dtb.rdAccesses                          0                       # TLB accesses on read requests
system.cpu2.dtb.rdMisses                            0                       # TLB misses on read requests
system.cpu2.dtb.wrAccesses                          0                       # TLB accesses on write requests
system.cpu2.dtb.wrMisses                            0                       # TLB misses on write requests
system.cpu2.itb.rdAccesses                          0                       # TLB accesses on read requests
system.cpu2.itb.rdMisses                            0                       # TLB misses on read requests
system.cpu2.itb.wrAccesses                          0                       # TLB accesses on write requests
system.cpu2.itb.wrMisses                            0                       # TLB misses on write requests
system.cpu2.kern.inst.arm                           0                       # number of arm instructions executed
system.cpu2.kern.inst.quiesce                       0                       # number of quiesce instructions executed
system.cpu2.numCoalescedMMIO                        0                       # number of coalesced memory mapped IO requests
system.cpu2.numCycles                               0                       # number of cpu cycles simulated
system.cpu2.numExitSignal                           0                       # exits due to signal delivery
system.cpu2.numHalt                                 0                       # number of VM exits due to wait for interrupt instructions
system.cpu2.numHypercalls                           0                       # number of hypercalls
system.cpu2.numIO                                   0                       # number of VM exits due to legacy IO
system.cpu2.numInterrupts                           0                       # number of interrupts delivered
system.cpu2.numMMIO                                 0                       # number of VM exits due to memory mapped IO
system.cpu2.numVMExits                              0                       # total number of KVM exits
system.cpu2.numVMHalfEntries                        0                       # number of KVM entries to finalize pending operations
system.cpu2.numWorkItemsCompleted                   0                       # number of work items this cpu completed
system.cpu2.numWorkItemsStarted                     0                       # number of work items this cpu started
system.cpu3.committedInsts                          0                       # Number of instructions committed
system.cpu3.dtb.rdAccesses                          0                       # TLB accesses on read requests
system.cpu3.dtb.rdMisses                            0                       # TLB misses on read requests
system.cpu3.dtb.wrAccesses                          0                       # TLB accesses on write requests
system.cpu3.dtb.wrMisses                            0                       # TLB misses on write requests
system.cpu3.itb.rdAccesses                          0                       # TLB accesses on read requests
system.cpu3.itb.rdMisses                            0                       # TLB misses on read requests
system.cpu3.itb.wrAccesses                          0                       # TLB accesses on write requests
system.cpu3.itb.wrMisses                            0                       # TLB misses on write requests
system.cpu3.kern.inst.arm                           0                       # number of arm instructions executed
system.cpu3.kern.inst.quiesce                       0                       # number of quiesce instructions executed
system.cpu3.numCoalescedMMIO                        0                       # number of coalesced memory mapped IO requests
system.cpu3.numCycles                               0                       # number of cpu cycles simulated
system.cpu3.numExitSignal                           0                       # exits due to signal delivery
system.cpu3.numHalt                                 0                       # number of VM exits due to wait for interrupt instructions
system.cpu3.numHypercalls                           0                       # number of hypercalls
system.cpu3.numIO                                   0                       # number of VM exits due to legacy IO
system.cpu3.numInterrupts                           0                       # number of interrupts delivered
system.cpu3.numMMIO                                 0                       # number of VM exits due to memory mapped IO
system.cpu3.numVMExits                              0                       # total number of KVM exits
system.cpu3.numVMHalfEntries                        0                       # number of KVM entries to finalize pending operations
system.cpu3.numWorkItemsCompleted                   0                       # number of work items this cpu completed
system.cpu3.numWorkItemsStarted                     0                       # number of work items this cpu started
system.pc.south_bridge.ide.disks.dma_read_bytes            0                       # Number of bytes transfered via DMA reads (not PRD).
system.pc.south_bridge.ide.disks.dma_read_full_pages            0                       # Number of full page size DMA reads (not PRD).
system.pc.south_bridge.ide.disks.dma_read_txs            0                       # Number of DMA read transactions (not PRD).
system.pc.south_bridge.ide.disks.dma_write_bytes       180224                       # Number of bytes transfered via DMA writes.
system.pc.south_bridge.ide.disks.dma_write_full_pages           44                       # Number of full page size DMA writes.
system.pc.south_bridge.ide.disks.dma_write_txs           44                       # Number of DMA write transactions.
system.ruby.DMA_Controller.I.allocI_load |           8    100.00%    100.00% |           0      0.00%    100.00%
system.ruby.DMA_Controller.I.allocI_load::total            8                      
system.ruby.DMA_Controller.I.allocI_store |        2816    100.00%    100.00% |           0      0.00%    100.00%
system.ruby.DMA_Controller.I.allocI_store::total         2816                      
system.ruby.DMA_Controller.I.deallocfwdfrom_in |        1864    100.00%    100.00% |           0      0.00%    100.00%
system.ruby.DMA_Controller.I.deallocfwdfrom_in::total         1864                      
system.ruby.DMA_Controller.M.allocTBE    |        1859    100.00%    100.00% |           0      0.00%    100.00%
system.ruby.DMA_Controller.M.allocTBE::total         1859                      
system.ruby.DMA_Controller.M.externalstoreMrespfrom_in |        2816    100.00%    100.00% |           0      0.00%    100.00%
system.ruby.DMA_Controller.M.externalstoreMrespfrom_in::total         2816                      
system.ruby.DMA_Controller.M_evict.Stallmandatory_in |       27580    100.00%    100.00% |           0      0.00%    100.00%
system.ruby.DMA_Controller.M_evict.Stallmandatory_in::total        27580                      
system.ruby.DMA_Controller.S.SloadSEvent |          36    100.00%    100.00% |           0      0.00%    100.00%
system.ruby.DMA_Controller.S.SloadSEvent::total           36                      
system.ruby.DMA_Controller.S.allocTBE    |           8    100.00%    100.00% |           0      0.00%    100.00%
system.ruby.DMA_Controller.S.allocTBE::total            8                      
system.ruby.DMA_Controller.S.deallocTBE  |           1    100.00%    100.00% |           0      0.00%    100.00%
system.ruby.DMA_Controller.S.deallocTBE::total            1                      
system.ruby.DMA_Controller.S.externalloadSrespfrom_in |           8    100.00%    100.00% |           0      0.00%    100.00%
system.ruby.DMA_Controller.S.externalloadSrespfrom_in::total            8                      
system.ruby.DMA_Controller.S_evict.Stallmandatory_in |           7    100.00%    100.00% |           0      0.00%    100.00%
system.ruby.DMA_Controller.S_evict.Stallmandatory_in::total            7                      
system.ruby.DMA_Controller.SloadSEvent   |          36    100.00%    100.00% |           0      0.00%    100.00%
system.ruby.DMA_Controller.SloadSEvent::total           36                      
system.ruby.DMA_Controller.Stallmandatory_in |       27587    100.00%    100.00% |           0      0.00%    100.00%
system.ruby.DMA_Controller.Stallmandatory_in::total        27587                      
system.ruby.DMA_Controller.allocI_load   |           8    100.00%    100.00% |           0      0.00%    100.00%
system.ruby.DMA_Controller.allocI_load::total            8                      
system.ruby.DMA_Controller.allocI_store  |        2816    100.00%    100.00% |           0      0.00%    100.00%
system.ruby.DMA_Controller.allocI_store::total         2816                      
system.ruby.DMA_Controller.allocTBE      |        1867    100.00%    100.00% |           0      0.00%    100.00%
system.ruby.DMA_Controller.allocTBE::total         1867                      
system.ruby.DMA_Controller.deallocTBE    |           1    100.00%    100.00% |           0      0.00%    100.00%
system.ruby.DMA_Controller.deallocTBE::total            1                      
system.ruby.DMA_Controller.deallocfwdfrom_in |        1864    100.00%    100.00% |           0      0.00%    100.00%
system.ruby.DMA_Controller.deallocfwdfrom_in::total         1864                      
system.ruby.DMA_Controller.externalloadSrespfrom_in |           8    100.00%    100.00% |           0      0.00%    100.00%
system.ruby.DMA_Controller.externalloadSrespfrom_in::total            8                      
system.ruby.DMA_Controller.externalstoreMrespfrom_in |        2816    100.00%    100.00% |           0      0.00%    100.00%
system.ruby.DMA_Controller.externalstoreMrespfrom_in::total         2816                      
system.ruby.Directory_Controller.I.allocTBE |       21416     27.15%     27.15% |       19957     25.30%     52.44% |       18752     23.77%     76.21% |       18764     23.79%    100.00%
system.ruby.Directory_Controller.I.allocTBE::total        78889                      
system.ruby.Directory_Controller.I.deallocTBE |       20543     27.23%     27.23% |       19096     25.32%     52.55% |       17868     23.69%     76.24% |       17923     23.76%    100.00%
system.ruby.Directory_Controller.I.deallocTBE::total        75430                      
system.ruby.Directory_Controller.I_GetSL1C1C1_0.Stallreqto_in |         655     23.27%     23.27% |         732     26.00%     49.27% |         634     22.52%     71.79% |         794     28.21%    100.00%
system.ruby.Directory_Controller.I_GetSL1C1C1_0.Stallreqto_in::total         2815                      
system.ruby.Directory_Controller.M.allocTBE |        6404     27.57%     27.57% |        5608     24.14%     51.72% |        5726     24.65%     76.37% |        5489     23.63%    100.00%
system.ruby.Directory_Controller.M.allocTBE::total        23227                      
system.ruby.Directory_Controller.M.deallocTBE |        6767     27.40%     27.40% |        5978     24.21%     51.61% |        6102     24.71%     76.32% |        5847     23.68%    100.00%
system.ruby.Directory_Controller.M.deallocTBE::total        24694                      
system.ruby.Directory_Controller.M_GetM.Progress |         468     48.35%     48.35% |          98     10.12%     58.47% |         337     34.81%     93.29% |          65      6.71%    100.00%
system.ruby.Directory_Controller.M_GetM.Progress::total          968                      
system.ruby.Directory_Controller.M_GetS.Progress |         387     32.06%     32.06% |         304     25.19%     57.25% |         287     23.78%     81.03% |         229     18.97%    100.00%
system.ruby.Directory_Controller.M_GetS.Progress::total         1207                      
system.ruby.Directory_Controller.M_GetS.Stallreqto_in |           0      0.00%      0.00% |          24     92.31%     92.31% |           0      0.00%     92.31% |           2      7.69%    100.00%
system.ruby.Directory_Controller.M_GetS.Stallreqto_in::total           26                      
system.ruby.Directory_Controller.M_GetS_WBL1C1C1_0.Stallreqto_in |          24     20.34%     20.34% |          44     37.29%     57.63% |          31     26.27%     83.90% |          19     16.10%    100.00%
system.ruby.Directory_Controller.M_GetS_WBL1C1C1_0.Stallreqto_in::total          118                      
system.ruby.Directory_Controller.Progress |         900     34.09%     34.09% |         548     20.76%     54.85% |         768     29.09%     83.94% |         424     16.06%    100.00%
system.ruby.Directory_Controller.Progress::total         2640                      
system.ruby.Directory_Controller.S.allocTBE |       37091     25.16%     25.16% |       37607     25.51%     50.68% |       36955     25.07%     75.75% |       35745     24.25%    100.00%
system.ruby.Directory_Controller.S.allocTBE::total       147398                      
system.ruby.Directory_Controller.S.deallocTBE |       37601     25.17%     25.17% |       38098     25.50%     50.67% |       37463     25.08%     75.75% |       36228     24.25%    100.00%
system.ruby.Directory_Controller.S.deallocTBE::total       149390                      
system.ruby.Directory_Controller.S_GetM.Progress |          45      9.68%      9.68% |         146     31.40%     41.08% |         144     30.97%     72.04% |         130     27.96%    100.00%
system.ruby.Directory_Controller.S_GetM.Progress::total          465                      
system.ruby.Directory_Controller.S_GetM.Stallreqto_in |           0      0.00%      0.00% |           6     75.00%     75.00% |           2     25.00%    100.00% |           0      0.00%    100.00%
system.ruby.Directory_Controller.S_GetM.Stallreqto_in::total            8                      
system.ruby.Directory_Controller.S_GetM.allocTBE |         300     28.22%     28.22% |         281     26.43%     54.66% |         265     24.93%     79.59% |         217     20.41%    100.00%
system.ruby.Directory_Controller.S_GetM.allocTBE::total         1063                      
system.ruby.Directory_Controller.S_GetM.deallocTBE |         300     28.22%     28.22% |         281     26.43%     54.66% |         265     24.93%     79.59% |         217     20.41%    100.00%
system.ruby.Directory_Controller.S_GetM.deallocTBE::total         1063                      
system.ruby.Directory_Controller.S_GetML1C1C1_0.Stallreqto_in |           0      0.00%      0.00% |           5    100.00%    100.00% |           0      0.00%    100.00% |           0      0.00%    100.00%
system.ruby.Directory_Controller.S_GetML1C1C1_0.Stallreqto_in::total            5                      
system.ruby.Directory_Controller.S_GetSL1C1C1_0.Stallreqto_in |          21     21.65%     21.65% |          34     35.05%     56.70% |          14     14.43%     71.13% |          28     28.87%    100.00%
system.ruby.Directory_Controller.S_GetSL1C1C1_0.Stallreqto_in::total           97                      
system.ruby.Directory_Controller.Stallreqto_in |         700     22.81%     22.81% |         845     27.53%     50.34% |         681     22.19%     72.53% |         843     27.47%    100.00%
system.ruby.Directory_Controller.Stallreqto_in::total         3069                      
system.ruby.Directory_Controller.allocTBE |       65211     26.02%     26.02% |       63453     25.32%     51.35% |       61698     24.62%     75.97% |       60215     24.03%    100.00%
system.ruby.Directory_Controller.allocTBE::total       250577                      
system.ruby.Directory_Controller.deallocTBE |       65211     26.02%     26.02% |       63453     25.32%     51.35% |       61698     24.62%     75.97% |       60215     24.03%    100.00%
system.ruby.Directory_Controller.deallocTBE::total       250577                      
system.ruby.IFETCH.hit_latency_hist_seqr::bucket_size            1                      
system.ruby.IFETCH.hit_latency_hist_seqr::max_bucket            9                      
system.ruby.IFETCH.hit_latency_hist_seqr::samples    207881143                      
system.ruby.IFETCH.hit_latency_hist_seqr |   207881143    100.00%    100.00% |           0      0.00%    100.00% |           0      0.00%    100.00% |           0      0.00%    100.00% |           0      0.00%    100.00% |           0      0.00%    100.00% |           0      0.00%    100.00% |           0      0.00%    100.00% |           0      0.00%    100.00% |           0      0.00%    100.00%
system.ruby.IFETCH.hit_latency_hist_seqr::total    207881143                      
system.ruby.IFETCH.latency_hist_seqr::bucket_size            1                      
system.ruby.IFETCH.latency_hist_seqr::max_bucket            9                      
system.ruby.IFETCH.latency_hist_seqr::samples    207930611                      
system.ruby.IFETCH.latency_hist_seqr     |   207930611    100.00%    100.00% |           0      0.00%    100.00% |           0      0.00%    100.00% |           0      0.00%    100.00% |           0      0.00%    100.00% |           0      0.00%    100.00% |           0      0.00%    100.00% |           0      0.00%    100.00% |           0      0.00%    100.00% |           0      0.00%    100.00%
system.ruby.IFETCH.latency_hist_seqr::total    207930611                      
system.ruby.IFETCH.miss_latency_hist_seqr::bucket_size            1                      
system.ruby.IFETCH.miss_latency_hist_seqr::max_bucket            9                      
system.ruby.IFETCH.miss_latency_hist_seqr::samples        49468                      
system.ruby.IFETCH.miss_latency_hist_seqr |       49468    100.00%    100.00% |           0      0.00%    100.00% |           0      0.00%    100.00% |           0      0.00%    100.00% |           0      0.00%    100.00% |           0      0.00%    100.00% |           0      0.00%    100.00% |           0      0.00%    100.00% |           0      0.00%    100.00% |           0      0.00%    100.00%
system.ruby.IFETCH.miss_latency_hist_seqr::total        49468                      
system.ruby.L1Cache_Controller.I.allocI_load |       26027     24.46%     24.46% |       29489     27.71%     52.18% |       28358     26.65%     78.83% |       22529     21.17%    100.00%
system.ruby.L1Cache_Controller.I.allocI_load::total       106403                      
system.ruby.L1Cache_Controller.I.allocI_store |        4334     26.01%     26.01% |        4427     26.57%     52.58% |        3490     20.95%     73.53% |        4411     26.47%    100.00%
system.ruby.L1Cache_Controller.I.allocI_store::total        16662                      
system.ruby.L1Cache_Controller.I.deallocfwdfrom_in |       29341     24.65%     24.65% |       32908     27.64%     52.29% |       30847     25.91%     78.21% |       25944     21.79%    100.00%
system.ruby.L1Cache_Controller.I.deallocfwdfrom_in::total       119040                      
system.ruby.L1Cache_Controller.I_store.Progress |          24     33.80%     33.80% |          25     35.21%     69.01% |          11     15.49%     84.51% |          11     15.49%    100.00%
system.ruby.L1Cache_Controller.I_store.Progress::total           71                      
system.ruby.L1Cache_Controller.I_store.Stallfwdfrom_in |           3     27.27%     27.27% |           2     18.18%     45.45% |           0      0.00%     45.45% |           6     54.55%    100.00%
system.ruby.L1Cache_Controller.I_store.Stallfwdfrom_in::total           11                      
system.ruby.L1Cache_Controller.M.MloadMEvent |     2385261     25.02%     25.02% |     2395137     25.13%     50.15% |     2384821     25.02%     75.17% |     2366449     24.83%    100.00%
system.ruby.L1Cache_Controller.M.MloadMEvent::total      9531668                      
system.ruby.L1Cache_Controller.M.MstoreMEvent |     2105089     24.91%     24.91% |     2151082     25.46%     50.37% |     2107732     24.94%     75.31% |     2085899     24.69%    100.00%
system.ruby.L1Cache_Controller.M.MstoreMEvent::total      8449802                      
system.ruby.L1Cache_Controller.M.allocTBE |        5810     27.19%     27.19% |        5533     25.89%     53.08% |        4839     22.65%     75.73% |        5186     24.27%    100.00%
system.ruby.L1Cache_Controller.M.allocTBE::total        21368                      
system.ruby.L1Cache_Controller.M.externalstoreMrespfrom_in |        5947     27.18%     27.18% |        5685     25.99%     53.17% |        4957     22.66%     75.83% |        5289     24.17%    100.00%
system.ruby.L1Cache_Controller.M.externalstoreMrespfrom_in::total        21878                      
system.ruby.L1Cache_Controller.M_evict.Stallmandatory_in |          17     15.60%     15.60% |          41     37.61%     53.21% |          24     22.02%     75.23% |          27     24.77%    100.00%
system.ruby.L1Cache_Controller.M_evict.Stallmandatory_in::total          109                      
system.ruby.L1Cache_Controller.MloadMEvent |     2385261     25.02%     25.02% |     2395137     25.13%     50.15% |     2384821     25.02%     75.17% |     2366449     24.83%    100.00%
system.ruby.L1Cache_Controller.MloadMEvent::total      9531668                      
system.ruby.L1Cache_Controller.MstoreMEvent |     2105089     24.91%     24.91% |     2151082     25.46%     50.37% |     2107732     24.94%     75.31% |     2085899     24.69%    100.00%
system.ruby.L1Cache_Controller.MstoreMEvent::total      8449802                      
system.ruby.L1Cache_Controller.Progress  |        2473     36.66%     36.66% |        1530     22.68%     59.35% |        1652     24.49%     83.84% |        1090     16.16%    100.00%
system.ruby.L1Cache_Controller.Progress::total         6745                      
system.ruby.L1Cache_Controller.S.SloadSEvent |    59182017     24.96%     24.96% |    59360690     25.04%     50.00% |    59445484     25.07%     75.07% |    59117542     24.93%    100.00%
system.ruby.L1Cache_Controller.S.SloadSEvent::total    237105733                      
system.ruby.L1Cache_Controller.S.allocTBE |       25672     24.66%     24.66% |       28880     27.74%     52.41% |       27723     26.63%     79.04% |       21819     20.96%    100.00%
system.ruby.L1Cache_Controller.S.allocTBE::total       104094                      
system.ruby.L1Cache_Controller.S.deallocTBE |         528     43.78%     43.78% |         247     20.48%     64.26% |         248     20.56%     84.83% |         183     15.17%    100.00%
system.ruby.L1Cache_Controller.S.deallocTBE::total         1206                      
system.ruby.L1Cache_Controller.S.externalloadSrespfrom_in |       26026     24.46%     24.46% |       29489     27.71%     52.17% |       28358     26.65%     78.83% |       22529     21.17%    100.00%
system.ruby.L1Cache_Controller.S.externalloadSrespfrom_in::total       106402                      
system.ruby.L1Cache_Controller.S_evict.Stallmandatory_in |          37     17.45%     17.45% |          53     25.00%     42.45% |          44     20.75%     63.21% |          78     36.79%    100.00%
system.ruby.L1Cache_Controller.S_evict.Stallmandatory_in::total          212                      
system.ruby.L1Cache_Controller.S_store.Progress |        2449     36.69%     36.69% |        1505     22.55%     59.24% |        1641     24.59%     83.83% |        1079     16.17%    100.00%
system.ruby.L1Cache_Controller.S_store.Progress::total         6674                      
system.ruby.L1Cache_Controller.SloadSEvent |    59182017     24.96%     24.96% |    59360690     25.04%     50.00% |    59445484     25.07%     75.07% |    59117542     24.93%    100.00%
system.ruby.L1Cache_Controller.SloadSEvent::total    237105733                      
system.ruby.L1Cache_Controller.Stallfwdfrom_in |           3     27.27%     27.27% |           2     18.18%     45.45% |           0      0.00%     45.45% |           6     54.55%    100.00%
system.ruby.L1Cache_Controller.Stallfwdfrom_in::total           11                      
system.ruby.L1Cache_Controller.Stallmandatory_in |          54     16.82%     16.82% |          94     29.28%     46.11% |          68     21.18%     67.29% |         105     32.71%    100.00%
system.ruby.L1Cache_Controller.Stallmandatory_in::total          321                      
system.ruby.L1Cache_Controller.allocI_load |       26027     24.46%     24.46% |       29489     27.71%     52.18% |       28358     26.65%     78.83% |       22529     21.17%    100.00%
system.ruby.L1Cache_Controller.allocI_load::total       106403                      
system.ruby.L1Cache_Controller.allocI_store |        4334     26.01%     26.01% |        4427     26.57%     52.58% |        3490     20.95%     73.53% |        4411     26.47%    100.00%
system.ruby.L1Cache_Controller.allocI_store::total        16662                      
system.ruby.L1Cache_Controller.allocTBE  |       31482     25.09%     25.09% |       34413     27.43%     52.52% |       32562     25.95%     78.48% |       27005     21.52%    100.00%
system.ruby.L1Cache_Controller.allocTBE::total       125462                      
system.ruby.L1Cache_Controller.deallocTBE |         528     43.78%     43.78% |         247     20.48%     64.26% |         248     20.56%     84.83% |         183     15.17%    100.00%
system.ruby.L1Cache_Controller.deallocTBE::total         1206                      
system.ruby.L1Cache_Controller.deallocfwdfrom_in |       29341     24.65%     24.65% |       32908     27.64%     52.29% |       30847     25.91%     78.21% |       25944     21.79%    100.00%
system.ruby.L1Cache_Controller.deallocfwdfrom_in::total       119040                      
system.ruby.L1Cache_Controller.externalloadSrespfrom_in |       26026     24.46%     24.46% |       29489     27.71%     52.17% |       28358     26.65%     78.83% |       22529     21.17%    100.00%
system.ruby.L1Cache_Controller.externalloadSrespfrom_in::total       106402                      
system.ruby.L1Cache_Controller.externalstoreMrespfrom_in |        5947     27.18%     27.18% |        5685     25.99%     53.17% |        4957     22.66%     75.83% |        5289     24.17%    100.00%
system.ruby.L1Cache_Controller.externalstoreMrespfrom_in::total        21878                      
system.ruby.LD.hit_latency_hist_seqr::bucket_size            1                      
system.ruby.LD.hit_latency_hist_seqr::max_bucket            9                      
system.ruby.LD.hit_latency_hist_seqr::samples     38756258                      
system.ruby.LD.hit_latency_hist_seqr     |    38756258    100.00%    100.00% |           0      0.00%    100.00% |           0      0.00%    100.00% |           0      0.00%    100.00% |           0      0.00%    100.00% |           0      0.00%    100.00% |           0      0.00%    100.00% |           0      0.00%    100.00% |           0      0.00%    100.00% |           0      0.00%    100.00%
system.ruby.LD.hit_latency_hist_seqr::total     38756258                      
system.ruby.LD.latency_hist_seqr::bucket_size            1                      
system.ruby.LD.latency_hist_seqr::max_bucket            9                      
system.ruby.LD.latency_hist_seqr::samples     38813192                      
system.ruby.LD.latency_hist_seqr         |    38813192    100.00%    100.00% |           0      0.00%    100.00% |           0      0.00%    100.00% |           0      0.00%    100.00% |           0      0.00%    100.00% |           0      0.00%    100.00% |           0      0.00%    100.00% |           0      0.00%    100.00% |           0      0.00%    100.00% |           0      0.00%    100.00%
system.ruby.LD.latency_hist_seqr::total      38813192                      
system.ruby.LD.miss_latency_hist_seqr::bucket_size            1                      
system.ruby.LD.miss_latency_hist_seqr::max_bucket            9                      
system.ruby.LD.miss_latency_hist_seqr::samples        56934                      
system.ruby.LD.miss_latency_hist_seqr    |       56934    100.00%    100.00% |           0      0.00%    100.00% |           0      0.00%    100.00% |           0      0.00%    100.00% |           0      0.00%    100.00% |           0      0.00%    100.00% |           0      0.00%    100.00% |           0      0.00%    100.00% |           0      0.00%    100.00% |           0      0.00%    100.00%
system.ruby.LD.miss_latency_hist_seqr::total        56934                      
system.ruby.Locked_RMW_Read.hit_latency_hist_seqr::bucket_size            1                      
system.ruby.Locked_RMW_Read.hit_latency_hist_seqr::max_bucket            9                      
system.ruby.Locked_RMW_Read.hit_latency_hist_seqr::samples         3684                      
system.ruby.Locked_RMW_Read.hit_latency_hist_seqr |        3684    100.00%    100.00% |           0      0.00%    100.00% |           0      0.00%    100.00% |           0      0.00%    100.00% |           0      0.00%    100.00% |           0      0.00%    100.00% |           0      0.00%    100.00% |           0      0.00%    100.00% |           0      0.00%    100.00% |           0      0.00%    100.00%
system.ruby.Locked_RMW_Read.hit_latency_hist_seqr::total         3684                      
system.ruby.Locked_RMW_Read.latency_hist_seqr::bucket_size            1                      
system.ruby.Locked_RMW_Read.latency_hist_seqr::max_bucket            9                      
system.ruby.Locked_RMW_Read.latency_hist_seqr::samples         5553                      
system.ruby.Locked_RMW_Read.latency_hist_seqr |        5553    100.00%    100.00% |           0      0.00%    100.00% |           0      0.00%    100.00% |           0      0.00%    100.00% |           0      0.00%    100.00% |           0      0.00%    100.00% |           0      0.00%    100.00% |           0      0.00%    100.00% |           0      0.00%    100.00% |           0      0.00%    100.00%
system.ruby.Locked_RMW_Read.latency_hist_seqr::total         5553                      
system.ruby.Locked_RMW_Read.miss_latency_hist_seqr::bucket_size            1                      
system.ruby.Locked_RMW_Read.miss_latency_hist_seqr::max_bucket            9                      
system.ruby.Locked_RMW_Read.miss_latency_hist_seqr::samples         1869                      
system.ruby.Locked_RMW_Read.miss_latency_hist_seqr |        1869    100.00%    100.00% |           0      0.00%    100.00% |           0      0.00%    100.00% |           0      0.00%    100.00% |           0      0.00%    100.00% |           0      0.00%    100.00% |           0      0.00%    100.00% |           0      0.00%    100.00% |           0      0.00%    100.00% |           0      0.00%    100.00%
system.ruby.Locked_RMW_Read.miss_latency_hist_seqr::total         1869                      
system.ruby.Locked_RMW_Write.hit_latency_hist_seqr::bucket_size            1                      
system.ruby.Locked_RMW_Write.hit_latency_hist_seqr::max_bucket            9                      
system.ruby.Locked_RMW_Write.hit_latency_hist_seqr::samples         5553                      
system.ruby.Locked_RMW_Write.hit_latency_hist_seqr |        5553    100.00%    100.00% |           0      0.00%    100.00% |           0      0.00%    100.00% |           0      0.00%    100.00% |           0      0.00%    100.00% |           0      0.00%    100.00% |           0      0.00%    100.00% |           0      0.00%    100.00% |           0      0.00%    100.00% |           0      0.00%    100.00%
system.ruby.Locked_RMW_Write.hit_latency_hist_seqr::total         5553                      
system.ruby.Locked_RMW_Write.latency_hist_seqr::bucket_size            1                      
system.ruby.Locked_RMW_Write.latency_hist_seqr::max_bucket            9                      
system.ruby.Locked_RMW_Write.latency_hist_seqr::samples         5553                      
system.ruby.Locked_RMW_Write.latency_hist_seqr |        5553    100.00%    100.00% |           0      0.00%    100.00% |           0      0.00%    100.00% |           0      0.00%    100.00% |           0      0.00%    100.00% |           0      0.00%    100.00% |           0      0.00%    100.00% |           0      0.00%    100.00% |           0      0.00%    100.00% |           0      0.00%    100.00%
system.ruby.Locked_RMW_Write.latency_hist_seqr::total         5553                      
system.ruby.RMW_Read.hit_latency_hist_seqr::bucket_size            1                      
system.ruby.RMW_Read.hit_latency_hist_seqr::max_bucket            9                      
system.ruby.RMW_Read.hit_latency_hist_seqr::samples        14519                      
system.ruby.RMW_Read.hit_latency_hist_seqr |       14519    100.00%    100.00% |           0      0.00%    100.00% |           0      0.00%    100.00% |           0      0.00%    100.00% |           0      0.00%    100.00% |           0      0.00%    100.00% |           0      0.00%    100.00% |           0      0.00%    100.00% |           0      0.00%    100.00% |           0      0.00%    100.00%
system.ruby.RMW_Read.hit_latency_hist_seqr::total        14519                      
system.ruby.RMW_Read.latency_hist_seqr::bucket_size            1                      
system.ruby.RMW_Read.latency_hist_seqr::max_bucket            9                      
system.ruby.RMW_Read.latency_hist_seqr::samples        16550                      
system.ruby.RMW_Read.latency_hist_seqr   |       16550    100.00%    100.00% |           0      0.00%    100.00% |           0      0.00%    100.00% |           0      0.00%    100.00% |           0      0.00%    100.00% |           0      0.00%    100.00% |           0      0.00%    100.00% |           0      0.00%    100.00% |           0      0.00%    100.00% |           0      0.00%    100.00%
system.ruby.RMW_Read.latency_hist_seqr::total        16550                      
system.ruby.RMW_Read.miss_latency_hist_seqr::bucket_size            1                      
system.ruby.RMW_Read.miss_latency_hist_seqr::max_bucket            9                      
system.ruby.RMW_Read.miss_latency_hist_seqr::samples         2031                      
system.ruby.RMW_Read.miss_latency_hist_seqr |        2031    100.00%    100.00% |           0      0.00%    100.00% |           0      0.00%    100.00% |           0      0.00%    100.00% |           0      0.00%    100.00% |           0      0.00%    100.00% |           0      0.00%    100.00% |           0      0.00%    100.00% |           0      0.00%    100.00% |           0      0.00%    100.00%
system.ruby.RMW_Read.miss_latency_hist_seqr::total         2031                      
system.ruby.ST.hit_latency_hist_seqr::bucket_size            1                      
system.ruby.ST.hit_latency_hist_seqr::max_bucket            9                      
system.ruby.ST.hit_latency_hist_seqr::samples      8426046                      
system.ruby.ST.hit_latency_hist_seqr     |     8426046    100.00%    100.00% |           0      0.00%    100.00% |           0      0.00%    100.00% |           0      0.00%    100.00% |           0      0.00%    100.00% |           0      0.00%    100.00% |           0      0.00%    100.00% |           0      0.00%    100.00% |           0      0.00%    100.00% |           0      0.00%    100.00%
system.ruby.ST.hit_latency_hist_seqr::total      8426046                      
system.ruby.ST.latency_hist_seqr::bucket_size            1                      
system.ruby.ST.latency_hist_seqr::max_bucket            9                      
system.ruby.ST.latency_hist_seqr::samples      8444024                      
system.ruby.ST.latency_hist_seqr         |     8444024    100.00%    100.00% |           0      0.00%    100.00% |           0      0.00%    100.00% |           0      0.00%    100.00% |           0      0.00%    100.00% |           0      0.00%    100.00% |           0      0.00%    100.00% |           0      0.00%    100.00% |           0      0.00%    100.00% |           0      0.00%    100.00%
system.ruby.ST.latency_hist_seqr::total       8444024                      
system.ruby.ST.miss_latency_hist_seqr::bucket_size            1                      
system.ruby.ST.miss_latency_hist_seqr::max_bucket            9                      
system.ruby.ST.miss_latency_hist_seqr::samples        17978                      
system.ruby.ST.miss_latency_hist_seqr    |       17978    100.00%    100.00% |           0      0.00%    100.00% |           0      0.00%    100.00% |           0      0.00%    100.00% |           0      0.00%    100.00% |           0      0.00%    100.00% |           0      0.00%    100.00% |           0      0.00%    100.00% |           0      0.00%    100.00% |           0      0.00%    100.00%
system.ruby.ST.miss_latency_hist_seqr::total        17978                      
system.ruby.dir_cntrl0.fwdFrom.avg_buf_msgs     0.001443                       # Average number of messages in buffer
system.ruby.dir_cntrl0.fwdFrom.avg_stall_time  2999.504425                       # Average number of cycles messages are stalled in this MB
system.ruby.dir_cntrl0.reqTo.avg_buf_msgs     0.000542                       # Average number of messages in buffer
system.ruby.dir_cntrl0.reqTo.avg_stall_time  4893.372487                       # Average number of cycles messages are stalled in this MB
system.ruby.dir_cntrl0.requestToMemory.avg_buf_msgs     0.000296                       # Average number of messages in buffer
system.ruby.dir_cntrl0.requestToMemory.avg_stall_time   499.996840                       # Average number of cycles messages are stalled in this MB
system.ruby.dir_cntrl0.respFrom.avg_buf_msgs     0.001606                       # Average number of messages in buffer
system.ruby.dir_cntrl0.respFrom.avg_stall_time  3006.449273                       # Average number of cycles messages are stalled in this MB
system.ruby.dir_cntrl0.respTo.avg_buf_msgs     0.000009                       # Average number of messages in buffer
system.ruby.dir_cntrl0.respTo.avg_stall_time  6314.245378                       # Average number of cycles messages are stalled in this MB
system.ruby.dir_cntrl0.responseFromMemory.avg_buf_msgs     0.000296                       # Average number of messages in buffer
system.ruby.dir_cntrl0.responseFromMemory.avg_stall_time   499.996207                       # Average number of cycles messages are stalled in this MB
system.ruby.dir_cntrl1.fwdFrom.avg_buf_msgs     0.001387                       # Average number of messages in buffer
system.ruby.dir_cntrl1.fwdFrom.avg_stall_time  2999.892650                       # Average number of cycles messages are stalled in this MB
system.ruby.dir_cntrl1.reqTo.avg_buf_msgs     0.000540                       # Average number of messages in buffer
system.ruby.dir_cntrl1.reqTo.avg_stall_time  4950.412283                       # Average number of cycles messages are stalled in this MB
system.ruby.dir_cntrl1.requestToMemory.avg_buf_msgs     0.000289                       # Average number of messages in buffer
system.ruby.dir_cntrl1.requestToMemory.avg_stall_time   499.999966                       # Average number of cycles messages are stalled in this MB
system.ruby.dir_cntrl1.respFrom.avg_buf_msgs     0.001591                       # Average number of messages in buffer
system.ruby.dir_cntrl1.respFrom.avg_stall_time  3007.071078                       # Average number of cycles messages are stalled in this MB
system.ruby.dir_cntrl1.respTo.avg_buf_msgs     0.000006                       # Average number of messages in buffer
system.ruby.dir_cntrl1.respTo.avg_stall_time 12881.041766                       # Average number of cycles messages are stalled in this MB
system.ruby.dir_cntrl1.responseFromMemory.avg_buf_msgs     0.000289                       # Average number of messages in buffer
system.ruby.dir_cntrl1.responseFromMemory.avg_stall_time   499.999329                       # Average number of cycles messages are stalled in this MB
system.ruby.dir_cntrl2.fwdFrom.avg_buf_msgs     0.001355                       # Average number of messages in buffer
system.ruby.dir_cntrl2.fwdFrom.avg_stall_time  2999.213799                       # Average number of cycles messages are stalled in this MB
system.ruby.dir_cntrl2.reqTo.avg_buf_msgs     0.000515                       # Average number of messages in buffer
system.ruby.dir_cntrl2.reqTo.avg_stall_time  4623.751321                       # Average number of cycles messages are stalled in this MB
system.ruby.dir_cntrl2.requestToMemory.avg_buf_msgs     0.000280                       # Average number of messages in buffer
system.ruby.dir_cntrl2.requestToMemory.avg_stall_time   499.999163                       # Average number of cycles messages are stalled in this MB
system.ruby.dir_cntrl2.respFrom.avg_buf_msgs     0.001709                       # Average number of messages in buffer
system.ruby.dir_cntrl2.respFrom.avg_stall_time  3013.583030                       # Average number of cycles messages are stalled in this MB
system.ruby.dir_cntrl2.respTo.avg_buf_msgs     0.000008                       # Average number of messages in buffer
system.ruby.dir_cntrl2.respTo.avg_stall_time  6713.348266                       # Average number of cycles messages are stalled in this MB
system.ruby.dir_cntrl2.responseFromMemory.avg_buf_msgs     0.000280                       # Average number of messages in buffer
system.ruby.dir_cntrl2.responseFromMemory.avg_stall_time   499.998529                       # Average number of cycles messages are stalled in this MB
system.ruby.dir_cntrl3.fwdFrom.avg_buf_msgs     0.001320                       # Average number of messages in buffer
system.ruby.dir_cntrl3.fwdFrom.avg_stall_time  2999.955318                       # Average number of cycles messages are stalled in this MB
system.ruby.dir_cntrl3.reqTo.avg_buf_msgs     0.000516                       # Average number of messages in buffer
system.ruby.dir_cntrl3.reqTo.avg_stall_time  4760.074127                       # Average number of cycles messages are stalled in this MB
system.ruby.dir_cntrl3.requestToMemory.avg_buf_msgs     0.000275                       # Average number of messages in buffer
system.ruby.dir_cntrl3.requestToMemory.avg_stall_time   499.999959                       # Average number of cycles messages are stalled in this MB
system.ruby.dir_cntrl3.respFrom.avg_buf_msgs     0.001715                       # Average number of messages in buffer
system.ruby.dir_cntrl3.respFrom.avg_stall_time  3012.224005                       # Average number of cycles messages are stalled in this MB
system.ruby.dir_cntrl3.respTo.avg_buf_msgs     0.000005                       # Average number of messages in buffer
system.ruby.dir_cntrl3.respTo.avg_stall_time 13541.276347                       # Average number of cycles messages are stalled in this MB
system.ruby.dir_cntrl3.responseFromMemory.avg_buf_msgs     0.000275                       # Average number of messages in buffer
system.ruby.dir_cntrl3.responseFromMemory.avg_stall_time   499.999321                       # Average number of cycles messages are stalled in this MB
system.ruby.dma_cntrl0.cache.demand_accesses            0                       # Number of cache demand accesses
system.ruby.dma_cntrl0.cache.demand_hits            0                       # Number of cache demand hits
system.ruby.dma_cntrl0.cache.demand_misses            0                       # Number of cache demand misses
system.ruby.dma_cntrl0.fully_busy_cycles         5073                       # cycles for which number of transistions == max transitions
system.ruby.dma_cntrl0.fwdFrom.avg_buf_msgs     0.000014                       # Average number of messages in buffer
system.ruby.dma_cntrl0.fwdFrom.avg_stall_time  5761.148209                       # Average number of cycles messages are stalled in this MB
system.ruby.dma_cntrl0.mandatoryQueue.avg_buf_msgs     0.002565                       # Average number of messages in buffer
system.ruby.dma_cntrl0.mandatoryQueue.avg_stall_time 162721.927208                       # Average number of cycles messages are stalled in this MB
system.ruby.dma_cntrl0.reqTo.avg_buf_msgs     0.004095                       # Average number of messages in buffer
system.ruby.dma_cntrl0.reqTo.avg_stall_time 14280.020615                       # Average number of cycles messages are stalled in this MB
system.ruby.dma_cntrl0.respFrom.avg_buf_msgs     0.000021                       # Average number of messages in buffer
system.ruby.dma_cntrl0.respFrom.avg_stall_time 102680.432955                       # Average number of cycles messages are stalled in this MB
system.ruby.dma_cntrl0.respTo.avg_buf_msgs     0.000000                       # Average number of messages in buffer
system.ruby.dma_cntrl0.respTo.avg_stall_time   971.596068                       # Average number of cycles messages are stalled in this MB
system.ruby.hit_latency_hist_seqr::bucket_size            1                      
system.ruby.hit_latency_hist_seqr::max_bucket            9                      
system.ruby.hit_latency_hist_seqr::samples    255087203                      
system.ruby.hit_latency_hist_seqr        |   255087203    100.00%    100.00% |           0      0.00%    100.00% |           0      0.00%    100.00% |           0      0.00%    100.00% |           0      0.00%    100.00% |           0      0.00%    100.00% |           0      0.00%    100.00% |           0      0.00%    100.00% |           0      0.00%    100.00% |           0      0.00%    100.00%
system.ruby.hit_latency_hist_seqr::total    255087203                      
system.ruby.io_controller.cache.demand_accesses            0                       # Number of cache demand accesses
system.ruby.io_controller.cache.demand_hits            0                       # Number of cache demand hits
system.ruby.io_controller.cache.demand_misses            0                       # Number of cache demand misses
system.ruby.l1_cntrl0.cache.demand_accesses            0                       # Number of cache demand accesses
system.ruby.l1_cntrl0.cache.demand_hits             0                       # Number of cache demand hits
system.ruby.l1_cntrl0.cache.demand_misses            0                       # Number of cache demand misses
system.ruby.l1_cntrl0.fully_busy_cycles             1                       # cycles for which number of transistions == max transitions
system.ruby.l1_cntrl0.fwdFrom.avg_buf_msgs     0.000225                       # Average number of messages in buffer
system.ruby.l1_cntrl0.fwdFrom.avg_stall_time  6424.488731                       # Average number of cycles messages are stalled in this MB
system.ruby.l1_cntrl0.mandatoryQueue.avg_buf_msgs     0.485818                       # Average number of messages in buffer
system.ruby.l1_cntrl0.mandatoryQueue.avg_stall_time   747.075192                       # Average number of cycles messages are stalled in this MB
system.ruby.l1_cntrl0.reqTo.avg_buf_msgs     0.000459                       # Average number of messages in buffer
system.ruby.l1_cntrl0.reqTo.avg_stall_time   499.999989                       # Average number of cycles messages are stalled in this MB
system.ruby.l1_cntrl0.respFrom.avg_buf_msgs     0.000248                       # Average number of messages in buffer
system.ruby.l1_cntrl0.respFrom.avg_stall_time 16436.782678                       # Average number of cycles messages are stalled in this MB
system.ruby.l1_cntrl0.respTo.avg_buf_msgs     0.000023                       # Average number of messages in buffer
system.ruby.l1_cntrl0.respTo.avg_stall_time   999.279227                       # Average number of cycles messages are stalled in this MB
system.ruby.l1_cntrl1.cache.demand_accesses            0                       # Number of cache demand accesses
system.ruby.l1_cntrl1.cache.demand_hits             0                       # Number of cache demand hits
system.ruby.l1_cntrl1.cache.demand_misses            0                       # Number of cache demand misses
system.ruby.l1_cntrl1.fwdFrom.avg_buf_msgs     0.000250                       # Average number of messages in buffer
system.ruby.l1_cntrl1.fwdFrom.avg_stall_time  6701.573344                       # Average number of cycles messages are stalled in this MB
system.ruby.l1_cntrl1.mandatoryQueue.avg_buf_msgs     0.488193                       # Average number of messages in buffer
system.ruby.l1_cntrl1.mandatoryQueue.avg_stall_time   806.095886                       # Average number of cycles messages are stalled in this MB
system.ruby.l1_cntrl1.reqTo.avg_buf_msgs     0.000508                       # Average number of messages in buffer
system.ruby.l1_cntrl1.reqTo.avg_stall_time   499.999989                       # Average number of cycles messages are stalled in this MB
system.ruby.l1_cntrl1.respFrom.avg_buf_msgs     0.000267                       # Average number of messages in buffer
system.ruby.l1_cntrl1.respFrom.avg_stall_time 16333.512449                       # Average number of cycles messages are stalled in this MB
system.ruby.l1_cntrl1.respTo.avg_buf_msgs     0.000021                       # Average number of messages in buffer
system.ruby.l1_cntrl1.respTo.avg_stall_time   999.054474                       # Average number of cycles messages are stalled in this MB
system.ruby.l1_cntrl2.cache.demand_accesses            0                       # Number of cache demand accesses
system.ruby.l1_cntrl2.cache.demand_hits             0                       # Number of cache demand hits
system.ruby.l1_cntrl2.cache.demand_misses            0                       # Number of cache demand misses
system.ruby.l1_cntrl2.fully_busy_cycles             1                       # cycles for which number of transistions == max transitions
system.ruby.l1_cntrl2.fwdFrom.avg_buf_msgs     0.000234                       # Average number of messages in buffer
system.ruby.l1_cntrl2.fwdFrom.avg_stall_time  6527.710850                       # Average number of cycles messages are stalled in this MB
system.ruby.l1_cntrl2.mandatoryQueue.avg_buf_msgs     0.488011                       # Average number of messages in buffer
system.ruby.l1_cntrl2.mandatoryQueue.avg_stall_time   766.519041                       # Average number of cycles messages are stalled in this MB
system.ruby.l1_cntrl2.reqTo.avg_buf_msgs     0.000480                       # Average number of messages in buffer
system.ruby.l1_cntrl2.reqTo.avg_stall_time   499.999989                       # Average number of cycles messages are stalled in this MB
system.ruby.l1_cntrl2.respFrom.avg_buf_msgs     0.000253                       # Average number of messages in buffer
system.ruby.l1_cntrl2.respFrom.avg_stall_time 16253.736552                       # Average number of cycles messages are stalled in this MB
system.ruby.l1_cntrl2.respTo.avg_buf_msgs     0.000019                       # Average number of messages in buffer
system.ruby.l1_cntrl2.respTo.avg_stall_time   998.176462                       # Average number of cycles messages are stalled in this MB
system.ruby.l1_cntrl3.cache.demand_accesses            0                       # Number of cache demand accesses
system.ruby.l1_cntrl3.cache.demand_hits             0                       # Number of cache demand hits
system.ruby.l1_cntrl3.cache.demand_misses            0                       # Number of cache demand misses
system.ruby.l1_cntrl3.fully_busy_cycles             2                       # cycles for which number of transistions == max transitions
system.ruby.l1_cntrl3.fwdFrom.avg_buf_msgs     0.000197                       # Average number of messages in buffer
system.ruby.l1_cntrl3.fwdFrom.avg_stall_time  6654.855959                       # Average number of cycles messages are stalled in this MB
system.ruby.l1_cntrl3.mandatoryQueue.avg_buf_msgs     0.484441                       # Average number of messages in buffer
system.ruby.l1_cntrl3.mandatoryQueue.avg_stall_time   717.179647                       # Average number of cycles messages are stalled in this MB
system.ruby.l1_cntrl3.reqTo.avg_buf_msgs     0.000400                       # Average number of messages in buffer
system.ruby.l1_cntrl3.reqTo.avg_stall_time   497.407417                       # Average number of cycles messages are stalled in this MB
system.ruby.l1_cntrl3.respFrom.avg_buf_msgs     0.000211                       # Average number of messages in buffer
system.ruby.l1_cntrl3.respFrom.avg_stall_time 16394.202477                       # Average number of cycles messages are stalled in this MB
system.ruby.l1_cntrl3.respTo.avg_buf_msgs     0.000021                       # Average number of messages in buffer
system.ruby.l1_cntrl3.respTo.avg_stall_time   993.450002                       # Average number of cycles messages are stalled in this MB
system.ruby.latency_hist_seqr::bucket_size            1                      
system.ruby.latency_hist_seqr::max_bucket            9                      
system.ruby.latency_hist_seqr::samples      255215483                      
system.ruby.latency_hist_seqr            |   255215483    100.00%    100.00% |           0      0.00%    100.00% |           0      0.00%    100.00% |           0      0.00%    100.00% |           0      0.00%    100.00% |           0      0.00%    100.00% |           0      0.00%    100.00% |           0      0.00%    100.00% |           0      0.00%    100.00% |           0      0.00%    100.00%
system.ruby.latency_hist_seqr::total        255215483                      
system.ruby.miss_latency_hist_seqr::bucket_size            1                      
system.ruby.miss_latency_hist_seqr::max_bucket            9                      
system.ruby.miss_latency_hist_seqr::samples       128280                      
system.ruby.miss_latency_hist_seqr       |      128280    100.00%    100.00% |           0      0.00%    100.00% |           0      0.00%    100.00% |           0      0.00%    100.00% |           0      0.00%    100.00% |           0      0.00%    100.00% |           0      0.00%    100.00% |           0      0.00%    100.00% |           0      0.00%    100.00% |           0      0.00%    100.00%
system.ruby.miss_latency_hist_seqr::total       128280                      
system.ruby.network.average_flit_latency    18.628416                      
system.ruby.network.average_flit_network_latency    12.392640                      
system.ruby.network.average_flit_queueing_latency     6.235776                      
system.ruby.network.average_flit_vnet_latency |   15.869412                       |    5.018106                       |    8.156915                      
system.ruby.network.average_flit_vqueue_latency |    6.639731                       |    6.000008                       |    5.516391                      
system.ruby.network.average_hops             1.004987                      
system.ruby.network.average_packet_latency    16.036148                      
system.ruby.network.average_packet_network_latency    11.292444                      
system.ruby.network.average_packet_queueing_latency     4.743705                      
system.ruby.network.average_packet_vnet_latency |   25.331580                       |    5.018106                       |    6.692085                      
system.ruby.network.average_packet_vqueue_latency |    6.521223                       |    6.000008                       |    3.157630                      
system.ruby.network.avg_link_utilization     0.025413                      
system.ruby.network.avg_vc_load          |    0.011131     43.80%     43.80% |    0.001364      5.37%     49.17% |    0.001313      5.17%     54.33% |    0.001291      5.08%     59.41% |    0.002066      8.13%     67.54% |    0.000238      0.94%     68.48% |    0.000231      0.91%     69.38% |    0.000230      0.91%     70.29% |    0.005612     22.08%     92.37% |    0.000678      2.67%     95.04% |    0.000626      2.46%     97.50% |    0.000635      2.50%    100.00%
system.ruby.network.avg_vc_load::total       0.025413                      
system.ruby.network.ext_in_link_utilization      1121416                      
system.ruby.network.ext_out_link_utilization      1121416                      
system.ruby.network.flit_network_latency |    10562379                       |      612771                       |     2722142                      
system.ruby.network.flit_queueing_latency |     4419279                       |      732673                       |     1840941                      
system.ruby.network.flits_injected       |      665584     59.35%     59.35% |      122112     10.89%     70.24% |      333722     29.76%    100.00%
system.ruby.network.flits_injected::total      1121418                      
system.ruby.network.flits_received       |      665581     59.35%     59.35% |      122112     10.89%     70.24% |      333722     29.76%    100.00%
system.ruby.network.flits_received::total      1121415                      
system.ruby.network.int_link_utilization      1127009                      
system.ruby.network.packet_network_latency |     3453581                       |      612771                       |     1669769                      
system.ruby.network.packet_queueing_latency |      889071                       |      732673                       |      787873                      
system.ruby.network.packets_injected     |      136336     26.84%     26.84% |      122112     24.04%     50.88% |      249514     49.12%    100.00%
system.ruby.network.packets_injected::total       507962                      
system.ruby.network.packets_received     |      136335     26.84%     26.84% |      122112     24.04%     50.88% |      249514     49.12%    100.00%
system.ruby.network.packets_received::total       507961                      
system.ruby.network.routers0.buffer_reads       588599                      
system.ruby.network.routers0.buffer_writes       588599                      
system.ruby.network.routers0.crossbar_activity       588599                      
system.ruby.network.routers0.sw_input_arbiter_activity       595020                      
system.ruby.network.routers0.sw_output_arbiter_activity       588599                      
system.ruby.network.routers1.buffer_reads       575791                      
system.ruby.network.routers1.buffer_writes       575791                      
system.ruby.network.routers1.crossbar_activity       575791                      
system.ruby.network.routers1.sw_input_arbiter_activity       576103                      
system.ruby.network.routers1.sw_output_arbiter_activity       575791                      
system.ruby.network.routers2.buffer_reads       557119                      
system.ruby.network.routers2.buffer_writes       557119                      
system.ruby.network.routers2.crossbar_activity       557119                      
system.ruby.network.routers2.sw_input_arbiter_activity       558761                      
system.ruby.network.routers2.sw_output_arbiter_activity       557119                      
system.ruby.network.routers3.buffer_reads       526916                      
system.ruby.network.routers3.buffer_writes       526916                      
system.ruby.network.routers3.crossbar_activity       526916                      
system.ruby.network.routers3.sw_input_arbiter_activity       527159                      
system.ruby.network.routers3.sw_output_arbiter_activity       526916                      
system.ruby.outstanding_req_hist_seqr::bucket_size            1                      
system.ruby.outstanding_req_hist_seqr::max_bucket            9                      
system.ruby.outstanding_req_hist_seqr::samples    255215484                      
system.ruby.outstanding_req_hist_seqr::mean     1.000000                      
system.ruby.outstanding_req_hist_seqr::gmean     1.000000                      
system.ruby.outstanding_req_hist_seqr::stdev     0.000234                      
system.ruby.outstanding_req_hist_seqr    |           0      0.00%      0.00% |   255215470    100.00%    100.00% |          14      0.00%    100.00% |           0      0.00%    100.00% |           0      0.00%    100.00% |           0      0.00%    100.00% |           0      0.00%    100.00% |           0      0.00%    100.00% |           0      0.00%    100.00% |           0      0.00%    100.00%
system.ruby.outstanding_req_hist_seqr::total    255215484                      
system.switch_cpus0.Branches                  2575958                       # Number of branches fetched
system.switch_cpus0.committedInsts           34228089                       # Number of instructions committed
system.switch_cpus0.committedOps             63331609                       # Number of ops (including micro ops) committed
system.switch_cpus0.dtb.rdAccesses            9693122                       # TLB accesses on read requests
system.switch_cpus0.dtb.rdMisses                 2736                       # TLB misses on read requests
system.switch_cpus0.dtb.wrAccesses            2105822                       # TLB accesses on write requests
system.switch_cpus0.dtb.wrMisses                  475                       # TLB misses on write requests
system.switch_cpus0.idle_fraction            0.011427                       # Percentage of idle cycles
system.switch_cpus0.itb.rdAccesses                  0                       # TLB accesses on read requests
system.switch_cpus0.itb.rdMisses                    0                       # TLB misses on read requests
system.switch_cpus0.itb.wrAccesses           51895037                       # TLB accesses on write requests
system.switch_cpus0.itb.wrMisses                  395                       # TLB misses on write requests
system.switch_cpus0.kern.inst.arm                   0                       # number of arm instructions executed
system.switch_cpus0.kern.inst.quiesce               0                       # number of quiesce instructions executed
system.switch_cpus0.not_idle_fraction        0.988573                       # Percentage of non-idle cycles
system.switch_cpus0.numCycles               132603382                       # number of cpu cycles simulated
system.switch_cpus0.numWorkItemsCompleted            0                       # number of work items this cpu completed
system.switch_cpus0.numWorkItemsStarted             0                       # number of work items this cpu started
system.switch_cpus0.num_busy_cycles      131088105.039915                       # Number of busy cycles
system.switch_cpus0.num_cc_register_reads      9106258                       # number of times the CC registers were read
system.switch_cpus0.num_cc_register_writes      7220257                       # number of times the CC registers were written
system.switch_cpus0.num_conditional_control_insts      1253605                       # number of instructions that are conditional controls
system.switch_cpus0.num_fp_alu_accesses      41276289                       # Number of float alu accesses
system.switch_cpus0.num_fp_insts             41276289                       # number of float instructions
system.switch_cpus0.num_fp_register_reads     63753045                       # number of times the floating registers were read
system.switch_cpus0.num_fp_register_writes     38581441                       # number of times the floating registers were written
system.switch_cpus0.num_func_calls             845807                       # number of times a function call or return occured
system.switch_cpus0.num_idle_cycles      1515276.960085                       # Number of idle cycles
system.switch_cpus0.num_int_alu_accesses     32131699                       # Number of integer alu accesses
system.switch_cpus0.num_int_insts            32131699                       # number of integer instructions
system.switch_cpus0.num_int_register_reads     63063436                       # number of times the integer registers were read
system.switch_cpus0.num_int_register_writes     19757423                       # number of times the integer registers were written
system.switch_cpus0.num_load_insts            9690386                       # Number of load instructions
system.switch_cpus0.num_mem_refs             11795738                       # number of memory refs
system.switch_cpus0.num_store_insts           2105352                       # Number of store instructions
system.switch_cpus0.num_vec_alu_accesses            0                       # Number of vector alu accesses
system.switch_cpus0.num_vec_insts                   0                       # number of vector instructions
system.switch_cpus0.num_vec_register_reads            0                       # number of times the vector registers were read
system.switch_cpus0.num_vec_register_writes            0                       # number of times the vector registers were written
system.switch_cpus0.op_class::No_OpClass        13827      0.02%      0.02% # Class of executed instruction
system.switch_cpus0.op_class::IntAlu         22830973     36.05%     36.07% # Class of executed instruction
system.switch_cpus0.op_class::IntMult            1721      0.00%     36.07% # Class of executed instruction
system.switch_cpus0.op_class::IntDiv             3397      0.01%     36.08% # Class of executed instruction
system.switch_cpus0.op_class::FloatAdd        5728609      9.05%     45.13% # Class of executed instruction
system.switch_cpus0.op_class::FloatCmp              0      0.00%     45.13% # Class of executed instruction
system.switch_cpus0.op_class::FloatCvt             48      0.00%     45.13% # Class of executed instruction
system.switch_cpus0.op_class::FloatMult             0      0.00%     45.13% # Class of executed instruction
system.switch_cpus0.op_class::FloatMultAcc            0      0.00%     45.13% # Class of executed instruction
system.switch_cpus0.op_class::FloatDiv              0      0.00%     45.13% # Class of executed instruction
system.switch_cpus0.op_class::FloatMisc             0      0.00%     45.13% # Class of executed instruction
system.switch_cpus0.op_class::FloatSqrt             0      0.00%     45.13% # Class of executed instruction
system.switch_cpus0.op_class::SimdAdd               0      0.00%     45.13% # Class of executed instruction
system.switch_cpus0.op_class::SimdAddAcc            0      0.00%     45.13% # Class of executed instruction
system.switch_cpus0.op_class::SimdAlu         7264800     11.47%     56.60% # Class of executed instruction
system.switch_cpus0.op_class::SimdCmp               0      0.00%     56.60% # Class of executed instruction
system.switch_cpus0.op_class::SimdCvt               0      0.00%     56.60% # Class of executed instruction
system.switch_cpus0.op_class::SimdMisc        1192500      1.88%     58.48% # Class of executed instruction
system.switch_cpus0.op_class::SimdMult              0      0.00%     58.48% # Class of executed instruction
system.switch_cpus0.op_class::SimdMultAcc            0      0.00%     58.48% # Class of executed instruction
system.switch_cpus0.op_class::SimdShift             0      0.00%     58.48% # Class of executed instruction
system.switch_cpus0.op_class::SimdShiftAcc            0      0.00%     58.48% # Class of executed instruction
system.switch_cpus0.op_class::SimdDiv               0      0.00%     58.48% # Class of executed instruction
system.switch_cpus0.op_class::SimdSqrt              0      0.00%     58.48% # Class of executed instruction
system.switch_cpus0.op_class::SimdFloatAdd      4062700      6.41%     64.89% # Class of executed instruction
system.switch_cpus0.op_class::SimdFloatAlu            0      0.00%     64.89% # Class of executed instruction
system.switch_cpus0.op_class::SimdFloatCmp            0      0.00%     64.89% # Class of executed instruction
system.switch_cpus0.op_class::SimdFloatCvt      3996700      6.31%     71.20% # Class of executed instruction
system.switch_cpus0.op_class::SimdFloatDiv       409600      0.65%     71.85% # Class of executed instruction
system.switch_cpus0.op_class::SimdFloatMisc            0      0.00%     71.85% # Class of executed instruction
system.switch_cpus0.op_class::SimdFloatMult      5928600      9.36%     81.21% # Class of executed instruction
system.switch_cpus0.op_class::SimdFloatMultAcc            0      0.00%     81.21% # Class of executed instruction
system.switch_cpus0.op_class::SimdFloatSqrt       102400      0.16%     81.37% # Class of executed instruction
system.switch_cpus0.op_class::SimdReduceAdd            0      0.00%     81.37% # Class of executed instruction
system.switch_cpus0.op_class::SimdReduceAlu            0      0.00%     81.37% # Class of executed instruction
system.switch_cpus0.op_class::SimdReduceCmp            0      0.00%     81.37% # Class of executed instruction
system.switch_cpus0.op_class::SimdFloatReduceAdd            0      0.00%     81.37% # Class of executed instruction
system.switch_cpus0.op_class::SimdFloatReduceCmp            0      0.00%     81.37% # Class of executed instruction
system.switch_cpus0.op_class::SimdAes               0      0.00%     81.37% # Class of executed instruction
system.switch_cpus0.op_class::SimdAesMix            0      0.00%     81.37% # Class of executed instruction
system.switch_cpus0.op_class::SimdSha1Hash            0      0.00%     81.37% # Class of executed instruction
system.switch_cpus0.op_class::SimdSha1Hash2            0      0.00%     81.37% # Class of executed instruction
system.switch_cpus0.op_class::SimdSha256Hash            0      0.00%     81.37% # Class of executed instruction
system.switch_cpus0.op_class::SimdSha256Hash2            0      0.00%     81.37% # Class of executed instruction
system.switch_cpus0.op_class::SimdShaSigma2            0      0.00%     81.37% # Class of executed instruction
system.switch_cpus0.op_class::SimdShaSigma3            0      0.00%     81.37% # Class of executed instruction
system.switch_cpus0.op_class::SimdPredAlu            0      0.00%     81.37% # Class of executed instruction
system.switch_cpus0.op_class::MemRead         2044451      3.23%     84.60% # Class of executed instruction
system.switch_cpus0.op_class::MemWrite         846555      1.34%     85.94% # Class of executed instruction
system.switch_cpus0.op_class::FloatMemRead      7645935     12.07%     98.01% # Class of executed instruction
system.switch_cpus0.op_class::FloatMemWrite      1258797      1.99%    100.00% # Class of executed instruction
system.switch_cpus0.op_class::IprAccess             0      0.00%    100.00% # Class of executed instruction
system.switch_cpus0.op_class::InstPrefetch            0      0.00%    100.00% # Class of executed instruction
system.switch_cpus0.op_class::total          63331613                       # Class of executed instruction
system.switch_cpus1.Branches                  2630149                       # Number of branches fetched
system.switch_cpus1.committedInsts           34343973                       # Number of instructions committed
system.switch_cpus1.committedOps             63671659                       # Number of ops (including micro ops) committed
system.switch_cpus1.dtb.rdAccesses            9730179                       # TLB accesses on read requests
system.switch_cpus1.dtb.rdMisses                 3336                       # TLB misses on read requests
system.switch_cpus1.dtb.wrAccesses            2151625                       # TLB accesses on write requests
system.switch_cpus1.dtb.wrMisses                  621                       # TLB misses on write requests
system.switch_cpus1.idle_fraction            0.002058                       # Percentage of idle cycles
system.switch_cpus1.itb.rdAccesses                  0                       # TLB accesses on read requests
system.switch_cpus1.itb.rdMisses                    0                       # TLB misses on read requests
system.switch_cpus1.itb.wrAccesses           52047434                       # TLB accesses on write requests
system.switch_cpus1.itb.wrMisses                  537                       # TLB misses on write requests
system.switch_cpus1.kern.inst.arm                   0                       # number of arm instructions executed
system.switch_cpus1.kern.inst.quiesce               0                       # number of quiesce instructions executed
system.switch_cpus1.not_idle_fraction        0.997942                       # Percentage of non-idle cycles
system.switch_cpus1.numCycles               132603218                       # number of cpu cycles simulated
system.switch_cpus1.numWorkItemsCompleted            0                       # number of work items this cpu completed
system.switch_cpus1.numWorkItemsStarted             0                       # number of work items this cpu started
system.switch_cpus1.num_busy_cycles      132330280.524875                       # Number of busy cycles
system.switch_cpus1.num_cc_register_reads      9329856                       # number of times the CC registers were read
system.switch_cpus1.num_cc_register_writes      7300713                       # number of times the CC registers were written
[...]
system.mem_ctrls1.llc.ReadReq_avg_mshr_miss_latency::.ruby.dir_cntrl1 64599.117612                       # average ReadReq mshr miss latency
system.mem_ctrls1.llc.ReadReq_avg_mshr_miss_latency::total 64599.117612                       # average ReadReq mshr miss latency
system.mem_ctrls1.llc.WriteReq_hits::.ruby.dir_cntrl1         5510                       # number of WriteReq hits
system.mem_ctrls1.llc.WriteReq_hits::total         5510                       # number of WriteReq hits
system.mem_ctrls1.llc.WriteReq_accesses::.ruby.dir_cntrl1         5510                       # number of WriteReq accesses(hits+misses)
system.mem_ctrls1.llc.WriteReq_accesses::total         5510                       # number of WriteReq accesses(hits+misses)
system.mem_ctrls1.llc.power_state.pwrStateResidencyTicks::UNDEFINED 99128685432001                       # Cumulative time (in ticks) in various power states
system.mem_ctrls1.llc.tags.tagsinuse      3163.140870                       # Cycle average of tags in use
system.mem_ctrls1.llc.tags.total_refs               0                       # Total number of references to valid blocks.
system.mem_ctrls1.llc.tags.sampled_refs             0                       # Sample count of references to valid blocks.
system.mem_ctrls1.llc.tags.avg_refs               nan                       # Average number of references to valid blocks.
system.mem_ctrls1.llc.tags.warmup_cycle  99062383763500                       # Cycle when the warmup percentage was hit.
system.mem_ctrls1.llc.tags.occ_blocks::.ruby.dir_cntrl1  3163.140870                       # Average occupied blocks per requestor
system.mem_ctrls1.llc.tags.occ_percent::.ruby.dir_cntrl1     0.012066                       # Average percentage of cache occupancy
system.mem_ctrls1.llc.tags.occ_percent::total     0.012066                       # Average percentage of cache occupancy
system.mem_ctrls1.llc.tags.occ_task_id_blocks::1024         3401                       # Occupied blocks per task id
system.mem_ctrls1.llc.tags.age_task_id_blocks_1024::0            6                       # Occupied blocks per task id
system.mem_ctrls1.llc.tags.age_task_id_blocks_1024::1           23                       # Occupied blocks per task id
system.mem_ctrls1.llc.tags.age_task_id_blocks_1024::2          127                       # Occupied blocks per task id
system.mem_ctrls1.llc.tags.age_task_id_blocks_1024::4         3245                       # Occupied blocks per task id
system.mem_ctrls1.llc.tags.occ_task_id_percent::1024     0.012974                       # Percentage of cache occupancy per task id
system.mem_ctrls1.llc.tags.tag_accesses        616505                       # Number of tag accesses
system.mem_ctrls1.llc.tags.data_accesses        38319                       # Number of data accesses
system.mem_ctrls1.llc.tags.power_state.pwrStateResidencyTicks::UNDEFINED 99128685432001                       # Cumulative time (in ticks) in various power states
system.mem_ctrls1.rank1.actEnergy             4055520                       # Energy for activate commands per rank (pJ)
system.mem_ctrls1.rank1.preEnergy             2151765                       # Energy for precharge commands per rank (pJ)
system.mem_ctrls1.rank1.readEnergy           10831380                       # Energy for read commands per rank (pJ)
system.mem_ctrls1.rank1.writeEnergy                 0                       # Energy for write commands per rank (pJ)
system.mem_ctrls1.rank1.refreshEnergy    5233659600.000001                       # Energy for refresh commands per rank (pJ)
system.mem_ctrls1.rank1.actBackEnergy      1439704860                       # Energy for active background per rank (pJ)
system.mem_ctrls1.rank1.preBackEnergy     24247345920                       # Energy for precharge background per rank (pJ)
system.mem_ctrls1.rank1.actPowerDownEnergy            0                       # Energy for active power-down per rank (pJ)
system.mem_ctrls1.rank1.prePowerDownEnergy            0                       # Energy for precharge power-down per rank (pJ)
system.mem_ctrls1.rank1.selfRefreshEnergy            0                       # Energy for self refresh per rank (pJ)
system.mem_ctrls1.rank1.totalEnergy       30937749045                       # Total energy per rank (pJ)
system.mem_ctrls1.rank1.averagePower       466.620494                       # Core power per rank (mW)
system.mem_ctrls1.rank1.totalIdleTime               0                       # Total Idle time Per DRAM Rank
system.mem_ctrls1.rank1.memoryStateTime::IDLE  63024482750                       # Time in different power states
system.mem_ctrls1.rank1.memoryStateTime::REF   2213900000                       # Time in different power states
system.mem_ctrls1.rank1.memoryStateTime::SREF            0                       # Time in different power states
system.mem_ctrls1.rank1.memoryStateTime::PRE_PDN            0                       # Time in different power states
system.mem_ctrls1.rank1.memoryStateTime::ACT   1063353751                       # Time in different power states
system.mem_ctrls1.rank1.memoryStateTime::ACT_PDN            0                       # Time in different power states
system.mem_ctrls1.rank0.actEnergy             5911920                       # Energy for activate commands per rank (pJ)
system.mem_ctrls1.rank0.preEnergy             3142260                       # Energy for precharge commands per rank (pJ)
system.mem_ctrls1.rank0.readEnergy           13451760                       # Energy for read commands per rank (pJ)
system.mem_ctrls1.rank0.writeEnergy                 0                       # Energy for write commands per rank (pJ)
system.mem_ctrls1.rank0.refreshEnergy    5233659600.000001                       # Energy for refresh commands per rank (pJ)
system.mem_ctrls1.rank0.actBackEnergy      1603158630                       # Energy for active background per rank (pJ)
system.mem_ctrls1.rank0.preBackEnergy     24109832640                       # Energy for precharge background per rank (pJ)
system.mem_ctrls1.rank0.actPowerDownEnergy            0                       # Energy for active power-down per rank (pJ)
system.mem_ctrls1.rank0.prePowerDownEnergy            0                       # Energy for precharge power-down per rank (pJ)
system.mem_ctrls1.rank0.selfRefreshEnergy            0                       # Energy for self refresh per rank (pJ)
system.mem_ctrls1.rank0.totalEnergy       30969156810                       # Total energy per rank (pJ)
system.mem_ctrls1.rank0.averagePower       467.094204                       # Core power per rank (mW)
system.mem_ctrls1.rank0.totalIdleTime               0                       # Total Idle time Per DRAM Rank
system.mem_ctrls1.rank0.memoryStateTime::IDLE  62664800251                       # Time in different power states
system.mem_ctrls1.rank0.memoryStateTime::REF   2213900000                       # Time in different power states
system.mem_ctrls1.rank0.memoryStateTime::SREF            0                       # Time in different power states
system.mem_ctrls1.rank0.memoryStateTime::PRE_PDN            0                       # Time in different power states
system.mem_ctrls1.rank0.memoryStateTime::ACT   1423036250                       # Time in different power states
system.mem_ctrls1.rank0.memoryStateTime::ACT_PDN            0                       # Time in different power states
system.mem_ctrls1.power_state.pwrStateResidencyTicks::UNDEFINED 99128685432001                       # Cumulative time (in ticks) in various power states
system.cpu_voltage_domain.voltage                   1                       # Voltage in Volts
system.iobus.trans_dist::ReadReq                  308                       # Transaction distribution
system.iobus.trans_dist::ReadResp                 308                       # Transaction distribution
system.iobus.trans_dist::WriteReq                 587                       # Transaction distribution
system.iobus.trans_dist::WriteResp                587                       # Transaction distribution
system.iobus.pkt_count_system.pc.south_bridge.io_apic.int_master::system.ruby.l1_cntrl1.sequencer.pio-slave-port          180                       # Packet count per connected master and slave (bytes)
system.iobus.pkt_count_system.pc.south_bridge.io_apic.int_master::total          180                       # Packet count per connected master and slave (bytes)
system.iobus.pkt_count_system.ruby.l1_cntrl0.sequencer.mem-master-port::system.pc.com_1.pio            2                       # Packet count per connected master and slave (bytes)
system.iobus.pkt_count_system.ruby.l1_cntrl0.sequencer.mem-master-port::system.ruby.l1_cntrl0.sequencer.pio-slave-port          160                       # Packet count per connected master and slave (bytes)
system.iobus.pkt_count_system.ruby.l1_cntrl0.sequencer.mem-master-port::system.ruby.l1_cntrl1.sequencer.pio-slave-port            2                       # Packet count per connected master and slave (bytes)
system.iobus.pkt_count_system.ruby.l1_cntrl0.sequencer.mem-master-port::system.ruby.l1_cntrl2.sequencer.pio-slave-port            4                       # Packet count per connected master and slave (bytes)
system.iobus.pkt_count_system.ruby.l1_cntrl0.sequencer.mem-master-port::total          168                       # Packet count per connected master and slave (bytes)
system.iobus.pkt_count_system.ruby.l1_cntrl1.sequencer.mem-master-port::system.pc.south_bridge.ide.pio           60                       # Packet count per connected master and slave (bytes)
system.iobus.pkt_count_system.ruby.l1_cntrl1.sequencer.mem-master-port::system.pc.com_1.pio          678                       # Packet count per connected master and slave (bytes)
system.iobus.pkt_count_system.ruby.l1_cntrl1.sequencer.mem-master-port::system.ruby.l1_cntrl0.sequencer.pio-slave-port            4                       # Packet count per connected master and slave (bytes)
system.iobus.pkt_count_system.ruby.l1_cntrl1.sequencer.mem-master-port::system.ruby.l1_cntrl1.sequencer.pio-slave-port          198                       # Packet count per connected master and slave (bytes)
system.iobus.pkt_count_system.ruby.l1_cntrl1.sequencer.mem-master-port::system.ruby.l1_cntrl2.sequencer.pio-slave-port            8                       # Packet count per connected master and slave (bytes)
system.iobus.pkt_count_system.ruby.l1_cntrl1.sequencer.mem-master-port::system.ruby.l1_cntrl3.sequencer.pio-slave-port            8                       # Packet count per connected master and slave (bytes)
system.iobus.pkt_count_system.ruby.l1_cntrl1.sequencer.mem-master-port::total          956                       # Packet count per connected master and slave (bytes)
system.iobus.pkt_count_system.ruby.l1_cntrl2.sequencer.mem-master-port::system.pc.south_bridge.ide.pio          170                       # Packet count per connected master and slave (bytes)
system.iobus.pkt_count_system.ruby.l1_cntrl2.sequencer.mem-master-port::system.ruby.l1_cntrl1.sequencer.pio-slave-port            2                       # Packet count per connected master and slave (bytes)
system.iobus.pkt_count_system.ruby.l1_cntrl2.sequencer.mem-master-port::system.ruby.l1_cntrl2.sequencer.pio-slave-port          156                       # Packet count per connected master and slave (bytes)
system.iobus.pkt_count_system.ruby.l1_cntrl2.sequencer.mem-master-port::total          328                       # Packet count per connected master and slave (bytes)
system.iobus.pkt_count_system.ruby.l1_cntrl3.sequencer.mem-master-port::system.ruby.l1_cntrl0.sequencer.pio-slave-port            4                       # Packet count per connected master and slave (bytes)
system.iobus.pkt_count_system.ruby.l1_cntrl3.sequencer.mem-master-port::system.ruby.l1_cntrl1.sequencer.pio-slave-port            2                       # Packet count per connected master and slave (bytes)
system.iobus.pkt_count_system.ruby.l1_cntrl3.sequencer.mem-master-port::system.ruby.l1_cntrl2.sequencer.pio-slave-port            2                       # Packet count per connected master and slave (bytes)
system.iobus.pkt_count_system.ruby.l1_cntrl3.sequencer.mem-master-port::system.ruby.l1_cntrl3.sequencer.pio-slave-port          150                       # Packet count per connected master and slave (bytes)
system.iobus.pkt_count_system.ruby.l1_cntrl3.sequencer.mem-master-port::total          158                       # Packet count per connected master and slave (bytes)
system.iobus.pkt_count::total                    1790                       # Packet count per connected master and slave (bytes)
system.iobus.pkt_size_system.pc.south_bridge.io_apic.int_master::system.ruby.l1_cntrl1.sequencer.pio-slave-port          360                       # Cumulative packet size per connected master and slave (bytes)
system.iobus.pkt_size_system.pc.south_bridge.io_apic.int_master::total          360                       # Cumulative packet size per connected master and slave (bytes)
system.iobus.pkt_size_system.ruby.l1_cntrl0.sequencer.mem-master-port::system.pc.com_1.pio            1                       # Cumulative packet size per connected master and slave (bytes)
system.iobus.pkt_size_system.ruby.l1_cntrl0.sequencer.mem-master-port::system.ruby.l1_cntrl0.sequencer.pio-slave-port          320                       # Cumulative packet size per connected master and slave (bytes)
system.iobus.pkt_size_system.ruby.l1_cntrl0.sequencer.mem-master-port::system.ruby.l1_cntrl1.sequencer.pio-slave-port            4                       # Cumulative packet size per connected master and slave (bytes)
system.iobus.pkt_size_system.ruby.l1_cntrl0.sequencer.mem-master-port::system.ruby.l1_cntrl2.sequencer.pio-slave-port            8                       # Cumulative packet size per connected master and slave (bytes)
system.iobus.pkt_size_system.ruby.l1_cntrl0.sequencer.mem-master-port::total          333                       # Cumulative packet size per connected master and slave (bytes)
system.iobus.pkt_size_system.ruby.l1_cntrl1.sequencer.mem-master-port::system.pc.south_bridge.ide.pio           30                       # Cumulative packet size per connected master and slave (bytes)
system.iobus.pkt_size_system.ruby.l1_cntrl1.sequencer.mem-master-port::system.pc.com_1.pio          339                       # Cumulative packet size per connected master and slave (bytes)
system.iobus.pkt_size_system.ruby.l1_cntrl1.sequencer.mem-master-port::system.ruby.l1_cntrl0.sequencer.pio-slave-port            8                       # Cumulative packet size per connected master and slave (bytes)
system.iobus.pkt_size_system.ruby.l1_cntrl1.sequencer.mem-master-port::system.ruby.l1_cntrl1.sequencer.pio-slave-port          396                       # Cumulative packet size per connected master and slave (bytes)
system.iobus.pkt_size_system.ruby.l1_cntrl1.sequencer.mem-master-port::system.ruby.l1_cntrl2.sequencer.pio-slave-port           16                       # Cumulative packet size per connected master and slave (bytes)
system.iobus.pkt_size_system.ruby.l1_cntrl1.sequencer.mem-master-port::system.ruby.l1_cntrl3.sequencer.pio-slave-port           16                       # Cumulative packet size per connected master and slave (bytes)
system.iobus.pkt_size_system.ruby.l1_cntrl1.sequencer.mem-master-port::total          805                       # Cumulative packet size per connected master and slave (bytes)
system.iobus.pkt_size_system.ruby.l1_cntrl2.sequencer.mem-master-port::system.pc.south_bridge.ide.pio          100                       # Cumulative packet size per connected master and slave (bytes)
system.iobus.pkt_size_system.ruby.l1_cntrl2.sequencer.mem-master-port::system.ruby.l1_cntrl1.sequencer.pio-slave-port            4                       # Cumulative packet size per connected master and slave (bytes)
system.iobus.pkt_size_system.ruby.l1_cntrl2.sequencer.mem-master-port::system.ruby.l1_cntrl2.sequencer.pio-slave-port          312                       # Cumulative packet size per connected master and slave (bytes)
system.iobus.pkt_size_system.ruby.l1_cntrl2.sequencer.mem-master-port::total          416                       # Cumulative packet size per connected master and slave (bytes)
system.iobus.pkt_size_system.ruby.l1_cntrl3.sequencer.mem-master-port::system.ruby.l1_cntrl0.sequencer.pio-slave-port            8                       # Cumulative packet size per connected master and slave (bytes)
system.iobus.pkt_size_system.ruby.l1_cntrl3.sequencer.mem-master-port::system.ruby.l1_cntrl1.sequencer.pio-slave-port            4                       # Cumulative packet size per connected master and slave (bytes)
system.iobus.pkt_size_system.ruby.l1_cntrl3.sequencer.mem-master-port::system.ruby.l1_cntrl2.sequencer.pio-slave-port            4                       # Cumulative packet size per connected master and slave (bytes)
system.iobus.pkt_size_system.ruby.l1_cntrl3.sequencer.mem-master-port::system.ruby.l1_cntrl3.sequencer.pio-slave-port          300                       # Cumulative packet size per connected master and slave (bytes)
system.iobus.pkt_size_system.ruby.l1_cntrl3.sequencer.mem-master-port::total          316                       # Cumulative packet size per connected master and slave (bytes)
system.iobus.pkt_size::total                     2230                       # Cumulative packet size per connected master and slave (bytes)
system.iobus.reqLayer2.occupancy               190000                       # Layer occupancy (ticks)
system.iobus.reqLayer2.utilization                0.0                       # Layer utilization (%)
system.iobus.power_state.pwrStateResidencyTicks::UNDEFINED 99128685432001                       # Cumulative time (in ticks) in various power states
system.iobus.reqLayer19.occupancy              207925                       # Layer occupancy (ticks)
system.iobus.reqLayer19.utilization               0.0                       # Layer utilization (%)
system.iobus.reqLayer17.occupancy              202429                       # Layer occupancy (ticks)
system.iobus.reqLayer17.utilization               0.0                       # Layer utilization (%)
system.iobus.reqLayer12.occupancy              428500                       # Layer occupancy (ticks)
system.iobus.reqLayer12.utilization               0.0                       # Layer utilization (%)
system.iobus.reqLayer18.occupancy              421417                       # Layer occupancy (ticks)
system.iobus.reqLayer18.utilization               0.0                       # Layer utilization (%)
system.iobus.respLayer9.occupancy              118000                       # Layer occupancy (ticks)
system.iobus.respLayer9.utilization               0.0                       # Layer utilization (%)
system.iobus.respLayer5.occupancy              810000                       # Layer occupancy (ticks)
system.iobus.respLayer5.utilization               0.0                       # Layer utilization (%)
system.iobus.respLayer7.occupancy              224000                       # Layer occupancy (ticks)
system.iobus.respLayer7.utilization               0.0                       # Layer utilization (%)
system.iobus.respLayer0.occupancy              135495                       # Layer occupancy (ticks)
system.iobus.respLayer0.utilization               0.0                       # Layer utilization (%)
system.iobus.respLayer3.occupancy              127000                       # Layer occupancy (ticks)
system.iobus.respLayer3.utilization               0.0                       # Layer utilization (%)
system.iobus.reqLayer20.occupancy              192928                       # Layer occupancy (ticks)
system.iobus.reqLayer20.utilization               0.0                       # Layer utilization (%)

---------- End Simulation Statistics   ----------
