
---------- Begin Simulation Statistics ----------
final_tick                               101064753131501                       # Number of ticks from beginning of simulation (restored from checkpoints and never reset)
host_inst_rate                                 945550                       # Simulator instruction rate (inst/s)
host_mem_usage                                1608436                       # Number of bytes of host memory used
host_op_rate                                  1183715                       # Simulator op (including micro ops) rate (op/s)
host_seconds                                  7245.02                       # Real time elapsed on the host
host_tick_rate                              230897242                       # Simulator tick rate (ticks/s)
sim_freq                                 1000000000000                       # Frequency of simulated ticks
sim_insts                                  6850529677                       # Number of instructions simulated
sim_ops                                    8576040530                       # Number of ops (including micro ops) simulated
sim_seconds                                  1.672856                       # Number of seconds simulated
sim_ticks                                1672856076501                       # Number of ticks simulated
system.cpu0.committedInsts                          0                       # Number of instructions committed
system.cpu0.dtb.rdAccesses                          0                       # TLB accesses on read requests
system.cpu0.dtb.rdMisses                            0                       # TLB misses on read requests
system.cpu0.dtb.wrAccesses                          0                       # TLB accesses on write requests
system.cpu0.dtb.wrMisses                            0                       # TLB misses on write requests
system.cpu0.itb.rdAccesses                          0                       # TLB accesses on read requests
system.cpu0.itb.rdMisses                            0                       # TLB misses on read requests
system.cpu0.itb.wrAccesses                          0                       # TLB accesses on write requests
system.cpu0.itb.wrMisses                            0                       # TLB misses on write requests
system.cpu0.kern.inst.arm                           0                       # number of arm instructions executed
system.cpu0.kern.inst.quiesce                       0                       # number of quiesce instructions executed
system.cpu0.numCoalescedMMIO                        0                       # number of coalesced memory mapped IO requests
system.cpu0.numCycles                               0                       # number of cpu cycles simulated
system.cpu0.numExitSignal                           0                       # exits due to signal delivery
system.cpu0.numHalt                                 0                       # number of VM exits due to wait for interrupt instructions
system.cpu0.numHypercalls                           0                       # number of hypercalls
system.cpu0.numIO                                   0                       # number of VM exits due to legacy IO
system.cpu0.numInterrupts                           0                       # number of interrupts delivered
system.cpu0.numMMIO                                 0                       # number of VM exits due to memory mapped IO
system.cpu0.numVMExits                              0                       # total number of KVM exits
system.cpu0.numVMHalfEntries                        0                       # number of KVM entries to finalize pending operations
system.cpu0.numWorkItemsCompleted                   0                       # number of work items this cpu completed
system.cpu0.numWorkItemsStarted                     0                       # number of work items this cpu started
system.cpu1.committedInsts                          0                       # Number of instructions committed
system.cpu1.dtb.rdAccesses                          0                       # TLB accesses on read requests
system.cpu1.dtb.rdMisses                            0                       # TLB misses on read requests
system.cpu1.dtb.wrAccesses                          0                       # TLB accesses on write requests
system.cpu1.dtb.wrMisses                            0                       # TLB misses on write requests
system.cpu1.itb.rdAccesses                          0                       # TLB accesses on read requests
system.cpu1.itb.rdMisses                            0                       # TLB misses on read requests
system.cpu1.itb.wrAccesses                          0                       # TLB accesses on write requests
system.cpu1.itb.wrMisses                            0                       # TLB misses on write requests
system.cpu1.kern.inst.arm                           0                       # number of arm instructions executed
system.cpu1.kern.inst.quiesce                       0                       # number of quiesce instructions executed
system.cpu1.numCoalescedMMIO                        0                       # number of coalesced memory mapped IO requests
system.cpu1.numCycles                               0                       # number of cpu cycles simulated
system.cpu1.numExitSignal                           0                       # exits due to signal delivery
system.cpu1.numHalt                                 0                       # number of VM exits due to wait for interrupt instructions
system.cpu1.numHypercalls                           0                       # number of hypercalls
system.cpu1.numIO                                   0                       # number of VM exits due to legacy IO
system.cpu1.numInterrupts                           0                       # number of interrupts delivered
system.cpu1.numMMIO                                 0                       # number of VM exits due to memory mapped IO
system.cpu1.numVMExits                              0                       # total number of KVM exits
system.cpu1.numVMHalfEntries                        0                       # number of KVM entries to finalize pending operations
system.cpu1.numWorkItemsCompleted                   0                       # number of work items this cpu completed
system.cpu1.numWorkItemsStarted                     0                       # number of work items this cpu started
system.cpu2.committedInsts                          0                       # Number of instructions committed
system.cpu2.dtb.rdAccesses                          0                       # TLB accesses on read requests
system.cpu2.dtb.rdMisses                            0                       # TLB misses on read requests
system.cpu2.dtb.wrAccesses                          0                       # TLB accesses on write requests
system.cpu2.dtb.wrMisses                            0                       # TLB misses on write requests
system.cpu2.itb.rdAccesses                          0                       # TLB accesses on read requests
system.cpu2.itb.rdMisses                            0                       # TLB misses on read requests
system.cpu2.itb.wrAccesses                          0                       # TLB accesses on write requests
system.cpu2.itb.wrMisses                            0                       # TLB misses on write requests
system.cpu2.kern.inst.arm                           0                       # number of arm instructions executed
system.cpu2.kern.inst.quiesce                       0                       # number of quiesce instructions executed
system.cpu2.numCoalescedMMIO                        0                       # number of coalesced memory mapped IO requests
system.cpu2.numCycles                               0                       # number of cpu cycles simulated
system.cpu2.numExitSignal                           0                       # exits due to signal delivery
system.cpu2.numHalt                                 0                       # number of VM exits due to wait for interrupt instructions
system.cpu2.numHypercalls                           0                       # number of hypercalls
system.cpu2.numIO                                   0                       # number of VM exits due to legacy IO
system.cpu2.numInterrupts                           0                       # number of interrupts delivered
system.cpu2.numMMIO                                 0                       # number of VM exits due to memory mapped IO
system.cpu2.numVMExits                              0                       # total number of KVM exits
system.cpu2.numVMHalfEntries                        0                       # number of KVM entries to finalize pending operations
system.cpu2.numWorkItemsCompleted                   0                       # number of work items this cpu completed
system.cpu2.numWorkItemsStarted                     0                       # number of work items this cpu started
system.cpu3.committedInsts                          0                       # Number of instructions committed
system.cpu3.dtb.rdAccesses                          0                       # TLB accesses on read requests
system.cpu3.dtb.rdMisses                            0                       # TLB misses on read requests
system.cpu3.dtb.wrAccesses                          0                       # TLB accesses on write requests
system.cpu3.dtb.wrMisses                            0                       # TLB misses on write requests
system.cpu3.itb.rdAccesses                          0                       # TLB accesses on read requests
system.cpu3.itb.rdMisses                            0                       # TLB misses on read requests
system.cpu3.itb.wrAccesses                          0                       # TLB accesses on write requests
system.cpu3.itb.wrMisses                            0                       # TLB misses on write requests
system.cpu3.kern.inst.arm                           0                       # number of arm instructions executed
system.cpu3.kern.inst.quiesce                       0                       # number of quiesce instructions executed
system.cpu3.numCoalescedMMIO                        0                       # number of coalesced memory mapped IO requests
system.cpu3.numCycles                               0                       # number of cpu cycles simulated
system.cpu3.numExitSignal                           0                       # exits due to signal delivery
system.cpu3.numHalt                                 0                       # number of VM exits due to wait for interrupt instructions
system.cpu3.numHypercalls                           0                       # number of hypercalls
system.cpu3.numIO                                   0                       # number of VM exits due to legacy IO
system.cpu3.numInterrupts                           0                       # number of interrupts delivered
system.cpu3.numMMIO                                 0                       # number of VM exits due to memory mapped IO
system.cpu3.numVMExits                              0                       # total number of KVM exits
system.cpu3.numVMHalfEntries                        0                       # number of KVM entries to finalize pending operations
system.cpu3.numWorkItemsCompleted                   0                       # number of work items this cpu completed
system.cpu3.numWorkItemsStarted                     0                       # number of work items this cpu started
system.pc.south_bridge.ide.disks.dma_read_bytes            0                       # Number of bytes transfered via DMA reads (not PRD).
system.pc.south_bridge.ide.disks.dma_read_full_pages            0                       # Number of full page size DMA reads (not PRD).
system.pc.south_bridge.ide.disks.dma_read_txs            0                       # Number of DMA read transactions (not PRD).
system.pc.south_bridge.ide.disks.dma_write_bytes       126976                       # Number of bytes transfered via DMA writes.
system.pc.south_bridge.ide.disks.dma_write_full_pages           31                       # Number of full page size DMA writes.
system.pc.south_bridge.ide.disks.dma_write_txs           31                       # Number of DMA write transactions.
system.ruby.DMA_Controller.I.allocI_load |           3    100.00%    100.00% |           0      0.00%    100.00%
system.ruby.DMA_Controller.I.allocI_load::total            3                      
system.ruby.DMA_Controller.I.allocI_store |        1984    100.00%    100.00% |           0      0.00%    100.00%
system.ruby.DMA_Controller.I.allocI_store::total         1984                      
system.ruby.DMA_Controller.I.deallocfwdfrom_in |         963    100.00%    100.00% |           0      0.00%    100.00%
system.ruby.DMA_Controller.I.deallocfwdfrom_in::total          963                      
system.ruby.DMA_Controller.M.allocTBE    |         961    100.00%    100.00% |           0      0.00%    100.00%
system.ruby.DMA_Controller.M.allocTBE::total          961                      
system.ruby.DMA_Controller.M.externalstoreMrespfrom_in |        1984    100.00%    100.00% |           0      0.00%    100.00%
system.ruby.DMA_Controller.M.externalstoreMrespfrom_in::total         1984                      
system.ruby.DMA_Controller.M_evict.Stallmandatory_in |       52597    100.00%    100.00% |           0      0.00%    100.00%
system.ruby.DMA_Controller.M_evict.Stallmandatory_in::total        52597                      
system.ruby.DMA_Controller.S.SloadSEvent |           1    100.00%    100.00% |           0      0.00%    100.00%
system.ruby.DMA_Controller.S.SloadSEvent::total            1                      
system.ruby.DMA_Controller.S.allocTBE    |           2    100.00%    100.00% |           0      0.00%    100.00%
system.ruby.DMA_Controller.S.allocTBE::total            2                      
system.ruby.DMA_Controller.S.externalloadSrespfrom_in |           3    100.00%    100.00% |           0      0.00%    100.00%
system.ruby.DMA_Controller.S.externalloadSrespfrom_in::total            3                      
system.ruby.DMA_Controller.S_evict.Stallmandatory_in |           4    100.00%    100.00% |           0      0.00%    100.00%
system.ruby.DMA_Controller.S_evict.Stallmandatory_in::total            4                      
system.ruby.DMA_Controller.SloadSEvent   |           1    100.00%    100.00% |           0      0.00%    100.00%
system.ruby.DMA_Controller.SloadSEvent::total            1                      
system.ruby.DMA_Controller.Stallmandatory_in |       52601    100.00%    100.00% |           0      0.00%    100.00%
system.ruby.DMA_Controller.Stallmandatory_in::total        52601                      
system.ruby.DMA_Controller.allocI_load   |           3    100.00%    100.00% |           0      0.00%    100.00%
system.ruby.DMA_Controller.allocI_load::total            3                      
system.ruby.DMA_Controller.allocI_store  |        1984    100.00%    100.00% |           0      0.00%    100.00%
system.ruby.DMA_Controller.allocI_store::total         1984                      
system.ruby.DMA_Controller.allocTBE      |         963    100.00%    100.00% |           0      0.00%    100.00%
system.ruby.DMA_Controller.allocTBE::total          963                      
system.ruby.DMA_Controller.deallocfwdfrom_in |         963    100.00%    100.00% |           0      0.00%    100.00%
system.ruby.DMA_Controller.deallocfwdfrom_in::total          963                      
system.ruby.DMA_Controller.externalloadSrespfrom_in |           3    100.00%    100.00% |           0      0.00%    100.00%
system.ruby.DMA_Controller.externalloadSrespfrom_in::total            3                      
system.ruby.DMA_Controller.externalstoreMrespfrom_in |        1984    100.00%    100.00% |           0      0.00%    100.00%
system.ruby.DMA_Controller.externalstoreMrespfrom_in::total         1984                      
system.ruby.Directory_Controller.I.allocTBE |     2755064     25.26%     25.26% |     2759278     25.30%     50.56% |     2668880     24.47%     75.03% |     2723933     24.97%    100.00%
system.ruby.Directory_Controller.I.allocTBE::total     10907155                      
system.ruby.Directory_Controller.I.deallocTBE |     2754084     25.26%     25.26% |     2758288     25.30%     50.56% |     2667884     24.47%     75.03% |     2722935     24.97%    100.00%
system.ruby.Directory_Controller.I.deallocTBE::total     10903191                      
system.ruby.Directory_Controller.I_GetML1C1_0.Stallreqto_in |          14     25.45%     25.45% |          23     41.82%     67.27% |          18     32.73%    100.00% |           0      0.00%    100.00%
system.ruby.Directory_Controller.I_GetML1C1_0.Stallreqto_in::total           55                      
system.ruby.Directory_Controller.I_GetSL1C1_0.Stallreqto_in |        2530     37.60%     37.60% |        1547     22.99%     60.60% |        1401     20.82%     81.42% |        1250     18.58%    100.00%
system.ruby.Directory_Controller.I_GetSL1C1_0.Stallreqto_in::total         6728                      
system.ruby.Directory_Controller.M.allocTBE |     1082104     24.98%     24.98% |     1091197     25.19%     50.17% |     1060162     24.47%     74.65% |     1098231     25.35%    100.00%
system.ruby.Directory_Controller.M.allocTBE::total      4331694                      
system.ruby.Directory_Controller.M.deallocTBE |     1082675     24.98%     24.98% |     1091782     25.19%     50.17% |     1060729     24.47%     74.65% |     1098803     25.35%    100.00%
system.ruby.Directory_Controller.M.deallocTBE::total      4333989                      
system.ruby.Directory_Controller.M_GetS.Progress |       13096     44.35%     44.35% |        2652      8.98%     53.33% |        3368     11.41%     64.74% |       10412     35.26%    100.00%
system.ruby.Directory_Controller.M_GetS.Progress::total        29528                      
system.ruby.Directory_Controller.M_GetS.Stallreqto_in |         135     10.68%     10.68% |         584     46.20%     56.88% |         198     15.66%     72.55% |         347     27.45%    100.00%
system.ruby.Directory_Controller.M_GetS.Stallreqto_in::total         1264                      
system.ruby.Directory_Controller.M_GetS_WBL1C1_0.Stallreqto_in |       15800     91.31%     91.31% |         551      3.18%     94.49% |         457      2.64%     97.13% |         496      2.87%    100.00%
system.ruby.Directory_Controller.M_GetS_WBL1C1_0.Stallreqto_in::total        17304                      
system.ruby.Directory_Controller.M_PutML1C1_0.Stallreqto_in |           0      0.00%      0.00% |           1     33.33%     33.33% |           0      0.00%     33.33% |           2     66.67%    100.00%
system.ruby.Directory_Controller.M_PutML1C1_0.Stallreqto_in::total            3                      
system.ruby.Directory_Controller.Progress |       13096     44.35%     44.35% |        2652      8.98%     53.33% |        3368     11.41%     64.74% |       10412     35.26%    100.00%
system.ruby.Directory_Controller.Progress::total        29528                      
system.ruby.Directory_Controller.S.allocTBE |     3343933     25.14%     25.14% |     3386846     25.46%     50.61% |     3276704     24.64%     75.24% |     3292791     24.76%    100.00%
system.ruby.Directory_Controller.S.allocTBE::total     13300274                      
system.ruby.Directory_Controller.S.deallocTBE |     3344342     25.14%     25.14% |     3387251     25.46%     50.61% |     3277133     24.64%     75.24% |     3293217     24.76%    100.00%
system.ruby.Directory_Controller.S.deallocTBE::total     13301943                      
system.ruby.Directory_Controller.S_GetML1C1_0.Stallreqto_in |          97     52.72%     52.72% |          12      6.52%     59.24% |           2      1.09%     60.33% |          73     39.67%    100.00%
system.ruby.Directory_Controller.S_GetML1C1_0.Stallreqto_in::total          184                      
system.ruby.Directory_Controller.S_GetML1C1_1.Stallreqto_in |           5     29.41%     29.41% |           0      0.00%     29.41% |          12     70.59%    100.00% |           0      0.00%    100.00%
system.ruby.Directory_Controller.S_GetML1C1_1.Stallreqto_in::total           17                      
system.ruby.Directory_Controller.S_GetML1C1_2.Stallreqto_in |          12     20.69%     20.69% |           4      6.90%     27.59% |           0      0.00%     27.59% |          42     72.41%    100.00%
system.ruby.Directory_Controller.S_GetML1C1_2.Stallreqto_in::total           58                      
system.ruby.Directory_Controller.S_GetSL1C1_0.Stallreqto_in |       10018     30.70%     30.70% |        7530     23.08%     53.78% |        8501     26.05%     79.84% |        6579     20.16%    100.00%
system.ruby.Directory_Controller.S_GetSL1C1_0.Stallreqto_in::total        32628                      
system.ruby.Directory_Controller.Stallreqto_in |       28611     49.13%     49.13% |       10252     17.60%     66.73% |       10589     18.18%     84.91% |        8789     15.09%    100.00%
system.ruby.Directory_Controller.Stallreqto_in::total        58241                      
system.ruby.Directory_Controller.allocTBE |     7181101     25.16%     25.16% |     7237321     25.36%     50.52% |     7005746     24.55%     75.07% |     7114955     24.93%    100.00%
system.ruby.Directory_Controller.allocTBE::total     28539123                      
system.ruby.Directory_Controller.deallocTBE |     7181101     25.16%     25.16% |     7237321     25.36%     50.52% |     7005746     24.55%     75.07% |     7114955     24.93%    100.00%
system.ruby.Directory_Controller.deallocTBE::total     28539123                      
system.ruby.IFETCH.hit_latency_hist_seqr::bucket_size            1                      
system.ruby.IFETCH.hit_latency_hist_seqr::max_bucket            9                      
system.ruby.IFETCH.hit_latency_hist_seqr::samples   2539851552                      
system.ruby.IFETCH.hit_latency_hist_seqr |  2539851552    100.00%    100.00% |           0      0.00%    100.00% |           0      0.00%    100.00% |           0      0.00%    100.00% |           0      0.00%    100.00% |           0      0.00%    100.00% |           0      0.00%    100.00% |           0      0.00%    100.00% |           0      0.00%    100.00% |           0      0.00%    100.00%
system.ruby.IFETCH.hit_latency_hist_seqr::total   2539851552                      
system.ruby.IFETCH.latency_hist_seqr::bucket_size            1                      
system.ruby.IFETCH.latency_hist_seqr::max_bucket            9                      
system.ruby.IFETCH.latency_hist_seqr::samples   2542419817                      
system.ruby.IFETCH.latency_hist_seqr     |  2542419817    100.00%    100.00% |           0      0.00%    100.00% |           0      0.00%    100.00% |           0      0.00%    100.00% |           0      0.00%    100.00% |           0      0.00%    100.00% |           0      0.00%    100.00% |           0      0.00%    100.00% |           0      0.00%    100.00% |           0      0.00%    100.00%
system.ruby.IFETCH.latency_hist_seqr::total   2542419817                      
system.ruby.IFETCH.miss_latency_hist_seqr::bucket_size            1                      
system.ruby.IFETCH.miss_latency_hist_seqr::max_bucket            9                      
system.ruby.IFETCH.miss_latency_hist_seqr::samples      2568265                      
system.ruby.IFETCH.miss_latency_hist_seqr |     2568265    100.00%    100.00% |           0      0.00%    100.00% |           0      0.00%    100.00% |           0      0.00%    100.00% |           0      0.00%    100.00% |           0      0.00%    100.00% |           0      0.00%    100.00% |           0      0.00%    100.00% |           0      0.00%    100.00% |           0      0.00%    100.00%
system.ruby.IFETCH.miss_latency_hist_seqr::total      2568265                      
system.ruby.L1Cache_Controller.I.allocI_load |     2473358     23.77%     23.77% |     2376683     22.84%     46.61% |     2239647     21.52%     68.14% |     3315395     31.86%    100.00%
system.ruby.L1Cache_Controller.I.allocI_load::total     10405083                      
system.ruby.L1Cache_Controller.I.allocI_store |      823053     23.78%     23.78% |      669010     19.33%     43.12% |      642400     18.56%     61.68% |     1326046     38.32%    100.00%
system.ruby.L1Cache_Controller.I.allocI_store::total      3460509                      
system.ruby.L1Cache_Controller.I.deallocfwdfrom_in |     3295391     23.77%     23.77% |     3044669     21.96%     45.74% |     2881029     20.78%     66.52% |     4640426     33.48%    100.00%
system.ruby.L1Cache_Controller.I.deallocfwdfrom_in::total     13861515                      
system.ruby.L1Cache_Controller.I_store.Progress |        5413     69.38%     69.38% |         802     10.28%     79.66% |         850     10.89%     90.55% |         737      9.45%    100.00%
system.ruby.L1Cache_Controller.I_store.Progress::total         7802                      
system.ruby.L1Cache_Controller.I_store.Stallfwdfrom_in |          61     23.37%     23.37% |          58     22.22%     45.59% |          71     27.20%     72.80% |          71     27.20%    100.00%
system.ruby.L1Cache_Controller.I_store.Stallfwdfrom_in::total          261                      
system.ruby.L1Cache_Controller.M.MloadMEvent |    72813772     23.27%     23.27% |    66685850     21.31%     44.59% |    65674458     20.99%     65.58% |   107699094     34.42%    100.00%
system.ruby.L1Cache_Controller.M.MloadMEvent::total    312873174                      
system.ruby.L1Cache_Controller.M.MstoreMEvent |    65515204     24.07%     24.07% |    56957215     20.92%     44.99% |    56197214     20.64%     65.63% |    93567946     34.37%    100.00%
system.ruby.L1Cache_Controller.M.MstoreMEvent::total    272237579                      
system.ruby.L1Cache_Controller.M.allocTBE |     1102170     25.45%     25.45% |      881819     20.36%     45.81% |      799844     18.47%     64.28% |     1546895     35.72%    100.00%
system.ruby.L1Cache_Controller.M.allocTBE::total      4330728                      
system.ruby.L1Cache_Controller.M.externalstoreMrespfrom_in |     1102418     25.45%     25.45% |      882184     20.36%     45.81% |      800128     18.47%     64.28% |     1547270     35.72%    100.00%
system.ruby.L1Cache_Controller.M.externalstoreMrespfrom_in::total      4332000                      
system.ruby.L1Cache_Controller.M_evict.Stallmandatory_in |        2586     26.79%     26.79% |        2406     24.93%     51.72% |        2416     25.03%     76.75% |        2244     23.25%    100.00%
system.ruby.L1Cache_Controller.M_evict.Stallmandatory_in::total         9652                      
system.ruby.L1Cache_Controller.M_evict_x_I.Progress |           0      0.00%      0.00% |           0      0.00%      0.00% |           0      0.00%      0.00% |           1    100.00%    100.00%
system.ruby.L1Cache_Controller.M_evict_x_I.Progress::total            1                      
system.ruby.L1Cache_Controller.M_evict_x_I.Stallmandatory_in |           0      0.00%      0.00% |           0      0.00%      0.00% |           0      0.00%      0.00% |           2    100.00%    100.00%
system.ruby.L1Cache_Controller.M_evict_x_I.Stallmandatory_in::total            2                      
system.ruby.L1Cache_Controller.MloadMEvent |    72813772     23.27%     23.27% |    66685850     21.31%     44.59% |    65674458     20.99%     65.58% |   107699094     34.42%    100.00%
system.ruby.L1Cache_Controller.MloadMEvent::total    312873174                      
system.ruby.L1Cache_Controller.MstoreMEvent |    65515204     24.07%     24.07% |    56957215     20.92%     44.99% |    56197214     20.64%     65.63% |    93567946     34.37%    100.00%
system.ruby.L1Cache_Controller.MstoreMEvent::total    272237579                      
system.ruby.L1Cache_Controller.Progress  |      305537     33.25%     33.25% |      220566     24.01%     57.26% |      164729     17.93%     75.19% |      227962     24.81%    100.00%
system.ruby.L1Cache_Controller.Progress::total       918794                      
system.ruby.L1Cache_Controller.S.SloadSEvent |   628006731     22.96%     22.96% |   594560896     21.73%     44.69% |   593179841     21.68%     66.38% |   919841423     33.62%    100.00%
system.ruby.L1Cache_Controller.S.SloadSEvent::total   2735588891                      
system.ruby.L1Cache_Controller.S.allocTBE |     2484382     23.82%     23.82% |     2382164     22.84%     46.65% |     2244885     21.52%     68.17% |     3320373     31.83%    100.00%
system.ruby.L1Cache_Controller.S.allocTBE::total     10431804                      
system.ruby.L1Cache_Controller.S.deallocTBE |       11796     39.95%     39.95% |        6140     20.80%     60.75% |        5972     20.23%     80.97% |        5618     19.03%    100.00%
system.ruby.L1Cache_Controller.S.deallocTBE::total        29526                      
system.ruby.L1Cache_Controller.S.externalloadSrespfrom_in |     2473358     23.77%     23.77% |     2376683     22.84%     46.61% |     2239647     21.52%     68.14% |     3315395     31.86%    100.00%
system.ruby.L1Cache_Controller.S.externalloadSrespfrom_in::total     10405083                      
system.ruby.L1Cache_Controller.S_evict.Progress |           0      0.00%      0.00% |           0      0.00%      0.00% |           1     50.00%     50.00% |           1     50.00%    100.00%
system.ruby.L1Cache_Controller.S_evict.Progress::total            2                      
system.ruby.L1Cache_Controller.S_evict.Stallmandatory_in |         951     24.96%     24.96% |         946     24.83%     49.79% |         916     24.04%     73.83% |         997     26.17%    100.00%
system.ruby.L1Cache_Controller.S_evict.Stallmandatory_in::total         3810                      
system.ruby.L1Cache_Controller.S_evict_x_I.Progress |           0      0.00%      0.00% |           1     25.00%     25.00% |           2     50.00%     75.00% |           1     25.00%    100.00%
system.ruby.L1Cache_Controller.S_evict_x_I.Progress::total            4                      
system.ruby.L1Cache_Controller.S_evict_x_I.Stallmandatory_in |           0      0.00%      0.00% |           1     20.00%     20.00% |           3     60.00%     80.00% |           1     20.00%    100.00%
system.ruby.L1Cache_Controller.S_evict_x_I.Stallmandatory_in::total            5                      
system.ruby.L1Cache_Controller.S_store.Progress |      300115     32.95%     32.95% |      219757     24.12%     57.07% |      163869     17.99%     75.06% |      227216     24.94%    100.00%
system.ruby.L1Cache_Controller.S_store.Progress::total       910957                      
system.ruby.L1Cache_Controller.S_store.Stallfwdfrom_in |          53     19.20%     19.20% |          78     28.26%     47.46% |          72     26.09%     73.55% |          73     26.45%    100.00%
system.ruby.L1Cache_Controller.S_store.Stallfwdfrom_in::total          276                      
system.ruby.L1Cache_Controller.S_store_GetM_Ack_AD.Progress |           9     32.14%     32.14% |           6     21.43%     53.57% |           7     25.00%     78.57% |           6     21.43%    100.00%
system.ruby.L1Cache_Controller.S_store_GetM_Ack_AD.Progress::total           28                      
system.ruby.L1Cache_Controller.S_store_GetM_Ack_AD.Stallfwdfrom_in |           1     50.00%     50.00% |           1     50.00%    100.00% |           0      0.00%    100.00% |           0      0.00%    100.00%
system.ruby.L1Cache_Controller.S_store_GetM_Ack_AD.Stallfwdfrom_in::total            2                      
system.ruby.L1Cache_Controller.SloadSEvent |   628006731     22.96%     22.96% |   594560896     21.73%     44.69% |   593179841     21.68%     66.38% |   919841423     33.62%    100.00%
system.ruby.L1Cache_Controller.SloadSEvent::total   2735588891                      
system.ruby.L1Cache_Controller.Stallfwdfrom_in |         115     21.34%     21.34% |         137     25.42%     46.75% |         143     26.53%     73.28% |         144     26.72%    100.00%
system.ruby.L1Cache_Controller.Stallfwdfrom_in::total          539                      
system.ruby.L1Cache_Controller.Stallmandatory_in |        3537     26.26%     26.26% |        3353     24.89%     51.15% |        3335     24.76%     75.92% |        3244     24.08%    100.00%
system.ruby.L1Cache_Controller.Stallmandatory_in::total        13469                      
system.ruby.L1Cache_Controller.allocI_load |     2473358     23.77%     23.77% |     2376683     22.84%     46.61% |     2239647     21.52%     68.14% |     3315395     31.86%    100.00%
system.ruby.L1Cache_Controller.allocI_load::total     10405083                      
system.ruby.L1Cache_Controller.allocI_store |      823053     23.78%     23.78% |      669010     19.33%     43.12% |      642400     18.56%     61.68% |     1326046     38.32%    100.00%
system.ruby.L1Cache_Controller.allocI_store::total      3460509                      
system.ruby.L1Cache_Controller.allocTBE  |     3586552     24.29%     24.29% |     3263983     22.11%     46.40% |     3044729     20.62%     67.03% |     4867268     32.97%    100.00%
system.ruby.L1Cache_Controller.allocTBE::total     14762532                      
system.ruby.L1Cache_Controller.deallocTBE |       11796     39.95%     39.95% |        6140     20.80%     60.75% |        5972     20.23%     80.97% |        5618     19.03%    100.00%
system.ruby.L1Cache_Controller.deallocTBE::total        29526                      
system.ruby.L1Cache_Controller.deallocfwdfrom_in |     3295391     23.77%     23.77% |     3044669     21.96%     45.74% |     2881029     20.78%     66.52% |     4640426     33.48%    100.00%
system.ruby.L1Cache_Controller.deallocfwdfrom_in::total     13861515                      
system.ruby.L1Cache_Controller.externalloadSrespfrom_in |     2473358     23.77%     23.77% |     2376683     22.84%     46.61% |     2239647     21.52%     68.14% |     3315395     31.86%    100.00%
system.ruby.L1Cache_Controller.externalloadSrespfrom_in::total     10405083                      
system.ruby.L1Cache_Controller.externalstoreMrespfrom_in |     1102418     25.45%     25.45% |      882184     20.36%     45.81% |      800128     18.47%     64.28% |     1547270     35.72%    100.00%
system.ruby.L1Cache_Controller.externalstoreMrespfrom_in::total      4332000                      
system.ruby.LD.hit_latency_hist_seqr::bucket_size            1                      
system.ruby.LD.hit_latency_hist_seqr::max_bucket            9                      
system.ruby.LD.hit_latency_hist_seqr::samples    508610513                      
system.ruby.LD.hit_latency_hist_seqr     |   508610513    100.00%    100.00% |           0      0.00%    100.00% |           0      0.00%    100.00% |           0      0.00%    100.00% |           0      0.00%    100.00% |           0      0.00%    100.00% |           0      0.00%    100.00% |           0      0.00%    100.00% |           0      0.00%    100.00% |           0      0.00%    100.00%
system.ruby.LD.hit_latency_hist_seqr::total    508610513                      
system.ruby.LD.latency_hist_seqr::bucket_size            1                      
system.ruby.LD.latency_hist_seqr::max_bucket            9                      
system.ruby.LD.latency_hist_seqr::samples    516447331                      
system.ruby.LD.latency_hist_seqr         |   516447331    100.00%    100.00% |           0      0.00%    100.00% |           0      0.00%    100.00% |           0      0.00%    100.00% |           0      0.00%    100.00% |           0      0.00%    100.00% |           0      0.00%    100.00% |           0      0.00%    100.00% |           0      0.00%    100.00% |           0      0.00%    100.00%
system.ruby.LD.latency_hist_seqr::total     516447331                      
system.ruby.LD.miss_latency_hist_seqr::bucket_size            1                      
system.ruby.LD.miss_latency_hist_seqr::max_bucket            9                      
system.ruby.LD.miss_latency_hist_seqr::samples      7836818                      
system.ruby.LD.miss_latency_hist_seqr    |     7836818    100.00%    100.00% |           0      0.00%    100.00% |           0      0.00%    100.00% |           0      0.00%    100.00% |           0      0.00%    100.00% |           0      0.00%    100.00% |           0      0.00%    100.00% |           0      0.00%    100.00% |           0      0.00%    100.00% |           0      0.00%    100.00%
system.ruby.LD.miss_latency_hist_seqr::total      7836818                      
system.ruby.Locked_RMW_Read.hit_latency_hist_seqr::bucket_size            1                      
system.ruby.Locked_RMW_Read.hit_latency_hist_seqr::max_bucket            9                      
system.ruby.Locked_RMW_Read.hit_latency_hist_seqr::samples       152967                      
system.ruby.Locked_RMW_Read.hit_latency_hist_seqr |      152967    100.00%    100.00% |           0      0.00%    100.00% |           0      0.00%    100.00% |           0      0.00%    100.00% |           0      0.00%    100.00% |           0      0.00%    100.00% |           0      0.00%    100.00% |           0      0.00%    100.00% |           0      0.00%    100.00% |           0      0.00%    100.00%
system.ruby.Locked_RMW_Read.hit_latency_hist_seqr::total       152967                      
system.ruby.Locked_RMW_Read.latency_hist_seqr::bucket_size            1                      
system.ruby.Locked_RMW_Read.latency_hist_seqr::max_bucket            9                      
system.ruby.Locked_RMW_Read.latency_hist_seqr::samples       215550                      
system.ruby.Locked_RMW_Read.latency_hist_seqr |      215550    100.00%    100.00% |           0      0.00%    100.00% |           0      0.00%    100.00% |           0      0.00%    100.00% |           0      0.00%    100.00% |           0      0.00%    100.00% |           0      0.00%    100.00% |           0      0.00%    100.00% |           0      0.00%    100.00% |           0      0.00%    100.00%
system.ruby.Locked_RMW_Read.latency_hist_seqr::total       215550                      
system.ruby.Locked_RMW_Read.miss_latency_hist_seqr::bucket_size            1                      
system.ruby.Locked_RMW_Read.miss_latency_hist_seqr::max_bucket            9                      
system.ruby.Locked_RMW_Read.miss_latency_hist_seqr::samples        62583                      
system.ruby.Locked_RMW_Read.miss_latency_hist_seqr |       62583    100.00%    100.00% |           0      0.00%    100.00% |           0      0.00%    100.00% |           0      0.00%    100.00% |           0      0.00%    100.00% |           0      0.00%    100.00% |           0      0.00%    100.00% |           0      0.00%    100.00% |           0      0.00%    100.00% |           0      0.00%    100.00%
system.ruby.Locked_RMW_Read.miss_latency_hist_seqr::total        62583                      
system.ruby.Locked_RMW_Write.hit_latency_hist_seqr::bucket_size            1                      
system.ruby.Locked_RMW_Write.hit_latency_hist_seqr::max_bucket            9                      
system.ruby.Locked_RMW_Write.hit_latency_hist_seqr::samples       215550                      
system.ruby.Locked_RMW_Write.hit_latency_hist_seqr |      215550    100.00%    100.00% |           0      0.00%    100.00% |           0      0.00%    100.00% |           0      0.00%    100.00% |           0      0.00%    100.00% |           0      0.00%    100.00% |           0      0.00%    100.00% |           0      0.00%    100.00% |           0      0.00%    100.00% |           0      0.00%    100.00%
system.ruby.Locked_RMW_Write.hit_latency_hist_seqr::total       215550                      
system.ruby.Locked_RMW_Write.latency_hist_seqr::bucket_size            1                      
system.ruby.Locked_RMW_Write.latency_hist_seqr::max_bucket            9                      
system.ruby.Locked_RMW_Write.latency_hist_seqr::samples       215550                      
system.ruby.Locked_RMW_Write.latency_hist_seqr |      215550    100.00%    100.00% |           0      0.00%    100.00% |           0      0.00%    100.00% |           0      0.00%    100.00% |           0      0.00%    100.00% |           0      0.00%    100.00% |           0      0.00%    100.00% |           0      0.00%    100.00% |           0      0.00%    100.00% |           0      0.00%    100.00%
system.ruby.Locked_RMW_Write.latency_hist_seqr::total       215550                      
system.ruby.RMW_Read.hit_latency_hist_seqr::bucket_size            1                      
system.ruby.RMW_Read.hit_latency_hist_seqr::max_bucket            9                      
system.ruby.RMW_Read.hit_latency_hist_seqr::samples     52482892                      
system.ruby.RMW_Read.hit_latency_hist_seqr |    52482892    100.00%    100.00% |           0      0.00%    100.00% |           0      0.00%    100.00% |           0      0.00%    100.00% |           0      0.00%    100.00% |           0      0.00%    100.00% |           0      0.00%    100.00% |           0      0.00%    100.00% |           0      0.00%    100.00% |           0      0.00%    100.00%
system.ruby.RMW_Read.hit_latency_hist_seqr::total     52482892                      
system.ruby.RMW_Read.latency_hist_seqr::bucket_size            1                      
system.ruby.RMW_Read.latency_hist_seqr::max_bucket            9                      
system.ruby.RMW_Read.latency_hist_seqr::samples     53375673                      
system.ruby.RMW_Read.latency_hist_seqr   |    53375673    100.00%    100.00% |           0      0.00%    100.00% |           0      0.00%    100.00% |           0      0.00%    100.00% |           0      0.00%    100.00% |           0      0.00%    100.00% |           0      0.00%    100.00% |           0      0.00%    100.00% |           0      0.00%    100.00% |           0      0.00%    100.00%
system.ruby.RMW_Read.latency_hist_seqr::total     53375673                      
system.ruby.RMW_Read.miss_latency_hist_seqr::bucket_size            1                      
system.ruby.RMW_Read.miss_latency_hist_seqr::max_bucket            9                      
system.ruby.RMW_Read.miss_latency_hist_seqr::samples       892781                      
system.ruby.RMW_Read.miss_latency_hist_seqr |      892781    100.00%    100.00% |           0      0.00%    100.00% |           0      0.00%    100.00% |           0      0.00%    100.00% |           0      0.00%    100.00% |           0      0.00%    100.00% |           0      0.00%    100.00% |           0      0.00%    100.00% |           0      0.00%    100.00% |           0      0.00%    100.00%
system.ruby.RMW_Read.miss_latency_hist_seqr::total       892781                      
system.ruby.ST.hit_latency_hist_seqr::bucket_size            1                      
system.ruby.ST.hit_latency_hist_seqr::max_bucket            9                      
system.ruby.ST.hit_latency_hist_seqr::samples    219386170                      
system.ruby.ST.hit_latency_hist_seqr     |   219386170    100.00%    100.00% |           0      0.00%    100.00% |           0      0.00%    100.00% |           0      0.00%    100.00% |           0      0.00%    100.00% |           0      0.00%    100.00% |           0      0.00%    100.00% |           0      0.00%    100.00% |           0      0.00%    100.00% |           0      0.00%    100.00%
system.ruby.ST.hit_latency_hist_seqr::total    219386170                      
system.ruby.ST.latency_hist_seqr::bucket_size            1                      
system.ruby.ST.latency_hist_seqr::max_bucket            9                      
system.ruby.ST.latency_hist_seqr::samples    222762806                      
system.ruby.ST.latency_hist_seqr         |   222762806    100.00%    100.00% |           0      0.00%    100.00% |           0      0.00%    100.00% |           0      0.00%    100.00% |           0      0.00%    100.00% |           0      0.00%    100.00% |           0      0.00%    100.00% |           0      0.00%    100.00% |           0      0.00%    100.00% |           0      0.00%    100.00%
system.ruby.ST.latency_hist_seqr::total     222762806                      
system.ruby.ST.miss_latency_hist_seqr::bucket_size            1                      
system.ruby.ST.miss_latency_hist_seqr::max_bucket            9                      
system.ruby.ST.miss_latency_hist_seqr::samples      3376636                      
system.ruby.ST.miss_latency_hist_seqr    |     3376636    100.00%    100.00% |           0      0.00%    100.00% |           0      0.00%    100.00% |           0      0.00%    100.00% |           0      0.00%    100.00% |           0      0.00%    100.00% |           0      0.00%    100.00% |           0      0.00%    100.00% |           0      0.00%    100.00% |           0      0.00%    100.00%
system.ruby.ST.miss_latency_hist_seqr::total      3376636                      
system.ruby.dir_cntrl0.fwdFrom.avg_buf_msgs     0.006277                       # Average number of messages in buffer
system.ruby.dir_cntrl0.fwdFrom.avg_stall_time  2999.994420                       # Average number of cycles messages are stalled in this MB
system.ruby.dir_cntrl0.reqTo.avg_buf_msgs     0.002232                       # Average number of messages in buffer
system.ruby.dir_cntrl0.reqTo.avg_stall_time  5461.732882                       # Average number of cycles messages are stalled in this MB
system.ruby.dir_cntrl0.requestToMemory.avg_buf_msgs     0.001427                       # Average number of messages in buffer
system.ruby.dir_cntrl0.requestToMemory.avg_stall_time   499.999928                       # Average number of cycles messages are stalled in this MB
system.ruby.dir_cntrl0.respFrom.avg_buf_msgs     0.006635                       # Average number of messages in buffer
system.ruby.dir_cntrl0.respFrom.avg_stall_time  3000.226171                       # Average number of cycles messages are stalled in this MB
system.ruby.dir_cntrl0.respTo.avg_buf_msgs     0.000004                       # Average number of messages in buffer
system.ruby.dir_cntrl0.respTo.avg_stall_time 23987.142194                       # Average number of cycles messages are stalled in this MB
system.ruby.dir_cntrl0.responseFromMemory.avg_buf_msgs     0.002511                       # Average number of messages in buffer
system.ruby.dir_cntrl0.responseFromMemory.avg_stall_time   499.999912                       # Average number of cycles messages are stalled in this MB
system.ruby.dir_cntrl1.fwdFrom.avg_buf_msgs     0.006306                       # Average number of messages in buffer
system.ruby.dir_cntrl1.fwdFrom.avg_stall_time  2999.992460                       # Average number of cycles messages are stalled in this MB
system.ruby.dir_cntrl1.reqTo.avg_buf_msgs     0.002194                       # Average number of messages in buffer
system.ruby.dir_cntrl1.reqTo.avg_stall_time  5089.269317                       # Average number of cycles messages are stalled in this MB
system.ruby.dir_cntrl1.requestToMemory.avg_buf_msgs     0.001439                       # Average number of messages in buffer
system.ruby.dir_cntrl1.requestToMemory.avg_stall_time   499.999974                       # Average number of cycles messages are stalled in this MB
system.ruby.dir_cntrl1.respFrom.avg_buf_msgs     0.006685                       # Average number of messages in buffer
system.ruby.dir_cntrl1.respFrom.avg_stall_time  3000.230972                       # Average number of cycles messages are stalled in this MB
system.ruby.dir_cntrl1.respTo.avg_buf_msgs     0.000001                       # Average number of messages in buffer
system.ruby.dir_cntrl1.respTo.avg_stall_time 24485.488072                       # Average number of cycles messages are stalled in this MB
system.ruby.dir_cntrl1.responseFromMemory.avg_buf_msgs     0.002531                       # Average number of messages in buffer
system.ruby.dir_cntrl1.responseFromMemory.avg_stall_time   499.999958                       # Average number of cycles messages are stalled in this MB
system.ruby.dir_cntrl2.fwdFrom.avg_buf_msgs     0.006096                       # Average number of messages in buffer
system.ruby.dir_cntrl2.fwdFrom.avg_stall_time  2999.990232                       # Average number of cycles messages are stalled in this MB
system.ruby.dir_cntrl2.reqTo.avg_buf_msgs     0.002126                       # Average number of messages in buffer
system.ruby.dir_cntrl2.reqTo.avg_stall_time  5130.018371                       # Average number of cycles messages are stalled in this MB
system.ruby.dir_cntrl2.requestToMemory.avg_buf_msgs     0.001395                       # Average number of messages in buffer
system.ruby.dir_cntrl2.requestToMemory.avg_stall_time   499.999793                       # Average number of cycles messages are stalled in this MB
system.ruby.dir_cntrl2.respFrom.avg_buf_msgs     0.006482                       # Average number of messages in buffer
system.ruby.dir_cntrl2.respFrom.avg_stall_time  3000.260757                       # Average number of cycles messages are stalled in this MB
system.ruby.dir_cntrl2.respTo.avg_buf_msgs     0.000001                       # Average number of messages in buffer
system.ruby.dir_cntrl2.respTo.avg_stall_time 24505.703693                       # Average number of cycles messages are stalled in this MB
system.ruby.dir_cntrl2.responseFromMemory.avg_buf_msgs     0.002452                       # Average number of messages in buffer
system.ruby.dir_cntrl2.responseFromMemory.avg_stall_time   499.999777                       # Average number of cycles messages are stalled in this MB
system.ruby.dir_cntrl3.fwdFrom.avg_buf_msgs     0.006207                       # Average number of messages in buffer
system.ruby.dir_cntrl3.fwdFrom.avg_stall_time  2999.991746                       # Average number of cycles messages are stalled in this MB
system.ruby.dir_cntrl3.reqTo.avg_buf_msgs     0.002153                       # Average number of messages in buffer
system.ruby.dir_cntrl3.reqTo.avg_stall_time  4936.469717                       # Average number of cycles messages are stalled in this MB
system.ruby.dir_cntrl3.requestToMemory.avg_buf_msgs     0.001421                       # Average number of messages in buffer
system.ruby.dir_cntrl3.requestToMemory.avg_stall_time   499.999999                       # Average number of cycles messages are stalled in this MB
system.ruby.dir_cntrl3.respFrom.avg_buf_msgs     0.006579                       # Average number of messages in buffer
system.ruby.dir_cntrl3.respFrom.avg_stall_time  3000.235016                       # Average number of cycles messages are stalled in this MB
system.ruby.dir_cntrl3.respTo.avg_buf_msgs     0.000003                       # Average number of messages in buffer
system.ruby.dir_cntrl3.respTo.avg_stall_time 25067.234971                       # Average number of cycles messages are stalled in this MB
system.ruby.dir_cntrl3.responseFromMemory.avg_buf_msgs     0.002506                       # Average number of messages in buffer
system.ruby.dir_cntrl3.responseFromMemory.avg_stall_time   499.999980                       # Average number of cycles messages are stalled in this MB
system.ruby.dma_cntrl0.cache.demand_accesses            0                       # Number of cache demand accesses
system.ruby.dma_cntrl0.cache.demand_hits            0                       # Number of cache demand hits
system.ruby.dma_cntrl0.cache.demand_misses            0                       # Number of cache demand misses
system.ruby.dma_cntrl0.fully_busy_cycles         9368                       # cycles for which number of transistions == max transitions
system.ruby.dma_cntrl0.fwdFrom.avg_buf_msgs     0.000000                       # Average number of messages in buffer
system.ruby.dma_cntrl0.fwdFrom.avg_stall_time  3555.764790                       # Average number of cycles messages are stalled in this MB
system.ruby.dma_cntrl0.mandatoryQueue.avg_buf_msgs     0.000186                       # Average number of messages in buffer
system.ruby.dma_cntrl0.mandatoryQueue.avg_stall_time 403736.124069                       # Average number of cycles messages are stalled in this MB
system.ruby.dma_cntrl0.reqTo.avg_buf_msgs     0.000337                       # Average number of messages in buffer
system.ruby.dma_cntrl0.reqTo.avg_stall_time 16164.181338                       # Average number of cycles messages are stalled in this MB
system.ruby.dma_cntrl0.respFrom.avg_buf_msgs     0.000001                       # Average number of messages in buffer
system.ruby.dma_cntrl0.respFrom.avg_stall_time 79519.055760                       # Average number of cycles messages are stalled in this MB
system.ruby.hit_latency_hist_seqr::bucket_size            1                      
system.ruby.hit_latency_hist_seqr::max_bucket            9                      
system.ruby.hit_latency_hist_seqr::samples   3320699644                      
system.ruby.hit_latency_hist_seqr        |  3320699644    100.00%    100.00% |           0      0.00%    100.00% |           0      0.00%    100.00% |           0      0.00%    100.00% |           0      0.00%    100.00% |           0      0.00%    100.00% |           0      0.00%    100.00% |           0      0.00%    100.00% |           0      0.00%    100.00% |           0      0.00%    100.00%
system.ruby.hit_latency_hist_seqr::total   3320699644                      
system.ruby.io_controller.cache.demand_accesses            0                       # Number of cache demand accesses
system.ruby.io_controller.cache.demand_hits            0                       # Number of cache demand hits
system.ruby.io_controller.cache.demand_misses            0                       # Number of cache demand misses
system.ruby.l1_cntrl0.cache.demand_accesses            0                       # Number of cache demand accesses
system.ruby.l1_cntrl0.cache.demand_hits             0                       # Number of cache demand hits
system.ruby.l1_cntrl0.cache.demand_misses            0                       # Number of cache demand misses
system.ruby.l1_cntrl0.fully_busy_cycles          1165                       # cycles for which number of transistions == max transitions
system.ruby.l1_cntrl0.fwdFrom.avg_buf_msgs     7.223284                       # Average number of messages in buffer
system.ruby.l1_cntrl0.fwdFrom.avg_stall_time  6324.555426                       # Average number of cycles messages are stalled in this MB
system.ruby.l1_cntrl0.mandatoryQueue.avg_buf_msgs     0.258135                       # Average number of messages in buffer
system.ruby.l1_cntrl0.mandatoryQueue.avg_stall_time  2639.267282                       # Average number of cycles messages are stalled in this MB
system.ruby.l1_cntrl0.reqTo.avg_buf_msgs     0.002052                       # Average number of messages in buffer
system.ruby.l1_cntrl0.reqTo.avg_stall_time   499.991512                       # Average number of cycles messages are stalled in this MB
system.ruby.l1_cntrl0.respFrom.avg_buf_msgs     0.001077                       # Average number of messages in buffer
system.ruby.l1_cntrl0.respFrom.avg_stall_time 16572.525835                       # Average number of cycles messages are stalled in this MB
system.ruby.l1_cntrl0.respTo.avg_buf_msgs     0.000014                       # Average number of messages in buffer
system.ruby.l1_cntrl0.respTo.avg_stall_time   827.319934                       # Average number of cycles messages are stalled in this MB
system.ruby.l1_cntrl1.cache.demand_accesses            0                       # Number of cache demand accesses
system.ruby.l1_cntrl1.cache.demand_hits             0                       # Number of cache demand hits
system.ruby.l1_cntrl1.cache.demand_misses            0                       # Number of cache demand misses
system.ruby.l1_cntrl1.fully_busy_cycles           910                       # cycles for which number of transistions == max transitions
system.ruby.l1_cntrl1.fwdFrom.avg_buf_msgs    10.384509                       # Average number of messages in buffer
system.ruby.l1_cntrl1.fwdFrom.avg_stall_time  6756.686845                       # Average number of cycles messages are stalled in this MB
system.ruby.l1_cntrl1.mandatoryQueue.avg_buf_msgs     0.240774                       # Average number of messages in buffer
system.ruby.l1_cntrl1.mandatoryQueue.avg_stall_time  2403.486662                       # Average number of cycles messages are stalled in this MB
system.ruby.l1_cntrl1.reqTo.avg_buf_msgs     0.001880                       # Average number of messages in buffer
system.ruby.l1_cntrl1.reqTo.avg_stall_time   500.050066                       # Average number of cycles messages are stalled in this MB
system.ruby.l1_cntrl1.respFrom.avg_buf_msgs     0.000976                       # Average number of messages in buffer
system.ruby.l1_cntrl1.respFrom.avg_stall_time 16992.240312                       # Average number of cycles messages are stalled in this MB
system.ruby.l1_cntrl1.respTo.avg_buf_msgs     0.000011                       # Average number of messages in buffer
system.ruby.l1_cntrl1.respTo.avg_stall_time   537.833623                       # Average number of cycles messages are stalled in this MB
system.ruby.l1_cntrl2.cache.demand_accesses            0                       # Number of cache demand accesses
system.ruby.l1_cntrl2.cache.demand_hits             0                       # Number of cache demand hits
system.ruby.l1_cntrl2.cache.demand_misses            0                       # Number of cache demand misses
system.ruby.l1_cntrl2.fully_busy_cycles          1036                       # cycles for which number of transistions == max transitions
system.ruby.l1_cntrl2.fwdFrom.avg_buf_msgs     6.323575                       # Average number of messages in buffer
system.ruby.l1_cntrl2.fwdFrom.avg_stall_time  6448.155517                       # Average number of cycles messages are stalled in this MB
system.ruby.l1_cntrl2.mandatoryQueue.avg_buf_msgs     0.238150                       # Average number of messages in buffer
system.ruby.l1_cntrl2.mandatoryQueue.avg_stall_time  2308.469275                       # Average number of cycles messages are stalled in this MB
system.ruby.l1_cntrl2.reqTo.avg_buf_msgs     0.001766                       # Average number of messages in buffer
system.ruby.l1_cntrl2.reqTo.avg_stall_time   499.949690                       # Average number of cycles messages are stalled in this MB
system.ruby.l1_cntrl2.respFrom.avg_buf_msgs     0.000911                       # Average number of messages in buffer
system.ruby.l1_cntrl2.respFrom.avg_stall_time 16144.027967                       # Average number of cycles messages are stalled in this MB
system.ruby.l1_cntrl2.respTo.avg_buf_msgs     0.000011                       # Average number of messages in buffer
system.ruby.l1_cntrl2.respTo.avg_stall_time   542.959866                       # Average number of cycles messages are stalled in this MB
system.ruby.l1_cntrl3.cache.demand_accesses            0                       # Number of cache demand accesses
system.ruby.l1_cntrl3.cache.demand_hits             0                       # Number of cache demand hits
system.ruby.l1_cntrl3.cache.demand_misses            0                       # Number of cache demand misses
system.ruby.l1_cntrl3.fully_busy_cycles          1035                       # cycles for which number of transistions == max transitions
system.ruby.l1_cntrl3.fwdFrom.avg_buf_msgs     6.738123                       # Average number of messages in buffer
system.ruby.l1_cntrl3.fwdFrom.avg_stall_time  6600.520481                       # Average number of cycles messages are stalled in this MB
system.ruby.l1_cntrl3.mandatoryQueue.avg_buf_msgs     0.376004                       # Average number of messages in buffer
system.ruby.l1_cntrl3.mandatoryQueue.avg_stall_time  3449.708527                       # Average number of cycles messages are stalled in this MB
system.ruby.l1_cntrl3.reqTo.avg_buf_msgs     0.002837                       # Average number of messages in buffer
system.ruby.l1_cntrl3.reqTo.avg_stall_time   500.121034                       # Average number of cycles messages are stalled in this MB
system.ruby.l1_cntrl3.respFrom.avg_buf_msgs     0.001455                       # Average number of messages in buffer
system.ruby.l1_cntrl3.respFrom.avg_stall_time 16591.574286                       # Average number of cycles messages are stalled in this MB
system.ruby.l1_cntrl3.respTo.avg_buf_msgs     0.000010                       # Average number of messages in buffer
system.ruby.l1_cntrl3.respTo.avg_stall_time   535.844838                       # Average number of cycles messages are stalled in this MB
system.ruby.latency_hist_seqr::bucket_size            1                      
system.ruby.latency_hist_seqr::max_bucket            9                      
system.ruby.latency_hist_seqr::samples     3335436727                      
system.ruby.latency_hist_seqr            |  3335436727    100.00%    100.00% |           0      0.00%    100.00% |           0      0.00%    100.00% |           0      0.00%    100.00% |           0      0.00%    100.00% |           0      0.00%    100.00% |           0      0.00%    100.00% |           0      0.00%    100.00% |           0      0.00%    100.00% |           0      0.00%    100.00%
system.ruby.latency_hist_seqr::total       3335436727                      
system.ruby.miss_latency_hist_seqr::bucket_size            1                      
system.ruby.miss_latency_hist_seqr::max_bucket            9                      
system.ruby.miss_latency_hist_seqr::samples     14737083                      
system.ruby.miss_latency_hist_seqr       |    14737083    100.00%    100.00% |           0      0.00%    100.00% |           0      0.00%    100.00% |           0      0.00%    100.00% |           0      0.00%    100.00% |           0      0.00%    100.00% |           0      0.00%    100.00% |           0      0.00%    100.00% |           0      0.00%    100.00% |           0      0.00%    100.00%
system.ruby.miss_latency_hist_seqr::total     14737083                      
system.ruby.network.average_flit_latency    16.635379                      
system.ruby.network.average_flit_network_latency    12.333610                      
system.ruby.network.average_flit_queueing_latency     4.301768                      
system.ruby.network.average_flit_vnet_latency |   15.335748                       |    5.008660                       |    9.705501                       |         nan                       |         nan                       |         nan                       |         nan                       |         nan                      
system.ruby.network.average_flit_vqueue_latency |    5.979997                       |    6.000005                       |    1.071152                       |         nan                       |         nan                       |         nan                       |         nan                       |         nan                      
system.ruby.network.average_hops             1.002714                      
system.ruby.network.average_packet_latency    15.273781                      
system.ruby.network.average_packet_network_latency    11.754893                      
system.ruby.network.average_packet_queueing_latency     3.518888                      
system.ruby.network.average_packet_vnet_latency |   25.284873                       |    5.008660                       |    8.014799                       |         nan                       |         nan                       |         nan                       |         nan                       |         nan                      
system.ruby.network.average_packet_vqueue_latency |    5.967292                       |    6.000005                       |    1.040080                       |         nan                       |         nan                       |         nan                       |         nan                       |         nan                      
system.ruby.network.avg_link_utilization     0.119786                      
system.ruby.network.avg_vc_load          |    0.049565     41.38%     41.38% |    0.005720      4.78%     46.15% |    0.005526      4.61%     50.77% |    0.005523      4.61%     55.38% |    0.009346      7.80%     63.18% |    0.001043      0.87%     64.05% |    0.001038      0.87%     64.92% |    0.001038      0.87%     65.78% |    0.030450     25.42%     91.20% |    0.003709      3.10%     94.30% |    0.003414      2.85%     97.15% |    0.003414      2.85%    100.00% |           0      0.00%    100.00% |           0      0.00%    100.00% |           0      0.00%    100.00% |           0      0.00%    100.00% |           0      0.00%    100.00% |           0      0.00%    100.00% |           0      0.00%    100.00% |           0      0.00%    100.00% |           0      0.00%    100.00% |           0      0.00%    100.00% |           0      0.00%    100.00% |           0      0.00%    100.00% |           0      0.00%    100.00% |           0      0.00%    100.00% |           0      0.00%    100.00% |           0      0.00%    100.00% |           0      0.00%    100.00% |           0      0.00%    100.00% |           0      0.00%    100.00% |           0      0.00%    100.00%
system.ruby.network.avg_vc_load::total       0.119786                      
system.ruby.network.ext_in_link_utilization    133469156                      
system.ruby.network.ext_out_link_utilization    133469156                      
system.ruby.network.flit_network_latency |  1133162097                       |    69580605                       |   443413869                       |           0                       |           0                       |           0                       |           0                       |           0                      
system.ruby.network.flit_queueing_latency |   441863375                       |    83352424                       |    48937571                       |           0                       |           0                       |           0                       |           0                       |           0                      
system.ruby.network.flits_injected       |    73890238     55.36%     55.36% |    13892059     10.41%     65.77% |    45686859     34.23%    100.00% |           0      0.00%    100.00% |           0      0.00%    100.00% |           0      0.00%    100.00% |           0      0.00%    100.00% |           0      0.00%    100.00%
system.ruby.network.flits_injected::total    133469156                      
system.ruby.network.flits_received       |    73890238     55.36%     55.36% |    13892059     10.41%     65.77% |    45686859     34.23%    100.00% |           0      0.00%    100.00% |           0      0.00%    100.00% |           0      0.00%    100.00% |           0      0.00%    100.00% |           0      0.00%    100.00%
system.ruby.network.flits_received::total    133469156                      
system.ruby.network.int_link_utilization    133831452                      
system.ruby.network.packet_network_latency |   374616789                       |    69580605                       |   228735322                       |           0                       |           0                       |           0                       |           0                       |           0                      
system.ruby.network.packet_queueing_latency |    88410475                       |    83352424                       |    29682967                       |           0                       |           0                       |           0                       |           0                       |           0                      
system.ruby.network.packets_injected     |    14815846     25.88%     25.88% |    13892059     24.27%     50.15% |    28539123     49.85%    100.00% |           0      0.00%    100.00% |           0      0.00%    100.00% |           0      0.00%    100.00% |           0      0.00%    100.00% |           0      0.00%    100.00%
system.ruby.network.packets_injected::total     57247028                      
system.ruby.network.packets_received     |    14815846     25.88%     25.88% |    13892059     24.27%     50.15% |    28539123     49.85%    100.00% |           0      0.00%    100.00% |           0      0.00%    100.00% |           0      0.00%    100.00% |           0      0.00%    100.00% |           0      0.00%    100.00%
system.ruby.network.packets_received::total     57247028                      
system.ruby.network.routers0.buffer_reads     64862582                      
system.ruby.network.routers0.buffer_writes     64862582                      
system.ruby.network.routers0.crossbar_activity     64862582                      
system.ruby.network.routers0.sw_input_arbiter_activity     64941024                      
system.ruby.network.routers0.sw_output_arbiter_activity     64862582                      
system.ruby.network.routers1.buffer_reads     65907380                      
system.ruby.network.routers1.buffer_writes     65907380                      
system.ruby.network.routers1.crossbar_activity     65907380                      
system.ruby.network.routers1.sw_input_arbiter_activity     65979731                      
system.ruby.network.routers1.sw_output_arbiter_activity     65907380                      
system.ruby.network.routers2.buffer_reads     62456406                      
system.ruby.network.routers2.buffer_writes     62456406                      
system.ruby.network.routers2.crossbar_activity     62456406                      
system.ruby.network.routers2.sw_input_arbiter_activity     62526391                      
system.ruby.network.routers2.sw_output_arbiter_activity     62456406                      
system.ruby.network.routers3.buffer_reads     74074240                      
system.ruby.network.routers3.buffer_writes     74074240                      
system.ruby.network.routers3.crossbar_activity     74074240                      
system.ruby.network.routers3.sw_input_arbiter_activity     74145382                      
system.ruby.network.routers3.sw_output_arbiter_activity     74074240                      
system.ruby.outstanding_req_hist_seqr::bucket_size            1                      
system.ruby.outstanding_req_hist_seqr::max_bucket            9                      
system.ruby.outstanding_req_hist_seqr::samples   3335436729                      
system.ruby.outstanding_req_hist_seqr::mean     1.000531                      
system.ruby.outstanding_req_hist_seqr::gmean     1.000368                      
system.ruby.outstanding_req_hist_seqr::stdev     0.023040                      
system.ruby.outstanding_req_hist_seqr    |           0      0.00%      0.00% |  3333665223     99.95%     99.95% |     1771506      0.05%    100.00% |           0      0.00%    100.00% |           0      0.00%    100.00% |           0      0.00%    100.00% |           0      0.00%    100.00% |           0      0.00%    100.00% |           0      0.00%    100.00% |           0      0.00%    100.00%
system.ruby.outstanding_req_hist_seqr::total   3335436729                      
system.switch_cpus0.Branches                 92140473                       # Number of branches fetched
system.switch_cpus0.committedInsts          443525427                       # Number of instructions committed
system.switch_cpus0.committedOps            819375857                       # Number of ops (including micro ops) committed
system.switch_cpus0.dtb.rdAccesses          124518388                       # TLB accesses on read requests
system.switch_cpus0.dtb.rdMisses               365232                       # TLB misses on read requests
system.switch_cpus0.dtb.wrAccesses           54399647                       # TLB accesses on write requests
system.switch_cpus0.dtb.wrMisses               268106                       # TLB misses on write requests
system.switch_cpus0.idle_fraction            0.351827                       # Percentage of idle cycles
system.switch_cpus0.itb.rdAccesses                  0                       # TLB accesses on read requests
system.switch_cpus0.itb.rdMisses                    0                       # TLB misses on read requests
system.switch_cpus0.itb.wrAccesses          589082320                       # TLB accesses on write requests
system.switch_cpus0.itb.wrMisses                15424                       # TLB misses on write requests
system.switch_cpus0.kern.inst.arm                   0                       # number of arm instructions executed
system.switch_cpus0.kern.inst.quiesce               0                       # number of quiesce instructions executed
system.switch_cpus0.not_idle_fraction        0.648173                       # Percentage of non-idle cycles
system.switch_cpus0.numCycles              3345711980                       # number of cpu cycles simulated
system.switch_cpus0.numWorkItemsCompleted            0                       # number of work items this cpu completed
system.switch_cpus0.numWorkItemsStarted             0                       # number of work items this cpu started
system.switch_cpus0.num_busy_cycles      2168601325.867419                       # Number of busy cycles
system.switch_cpus0.num_cc_register_reads    459918121                       # number of times the CC registers were read
system.switch_cpus0.num_cc_register_writes    308386753                       # number of times the CC registers were written
system.switch_cpus0.num_conditional_control_insts     81125345                       # number of instructions that are conditional controls
system.switch_cpus0.num_fp_alu_accesses          1774                       # Number of float alu accesses
system.switch_cpus0.num_fp_insts                 1774                       # number of float instructions
system.switch_cpus0.num_fp_register_reads         1646                       # number of times the floating registers were read
system.switch_cpus0.num_fp_register_writes         1030                       # number of times the floating registers were written
system.switch_cpus0.num_func_calls            5504451                       # number of times a function call or return occured
system.switch_cpus0.num_idle_cycles      1177110654.132581                       # Number of idle cycles
system.switch_cpus0.num_int_alu_accesses    816512863                       # Number of integer alu accesses
system.switch_cpus0.num_int_insts           816512863                       # number of integer instructions
system.switch_cpus0.num_int_register_reads   1570047991                       # number of times the integer registers were read
system.switch_cpus0.num_int_register_writes    673096871                       # number of times the integer registers were written
system.switch_cpus0.num_load_insts          123793965                       # Number of load instructions
system.switch_cpus0.num_mem_refs            177812314                       # number of memory refs
system.switch_cpus0.num_store_insts          54018349                       # Number of store instructions
system.switch_cpus0.num_vec_alu_accesses            0                       # Number of vector alu accesses
system.switch_cpus0.num_vec_insts                   0                       # number of vector instructions
system.switch_cpus0.num_vec_register_reads            0                       # number of times the vector registers were read
system.switch_cpus0.num_vec_register_writes            0                       # number of times the vector registers were written
system.switch_cpus0.op_class::No_OpClass      1696488      0.21%      0.21% # Class of executed instruction
system.switch_cpus0.op_class::IntAlu        638508451     77.92%     78.13% # Class of executed instruction
system.switch_cpus0.op_class::IntMult          824687      0.10%     78.23% # Class of executed instruction
system.switch_cpus0.op_class::IntDiv           604930      0.07%     78.30% # Class of executed instruction
system.switch_cpus0.op_class::FloatAdd             61      0.00%     78.30% # Class of executed instruction
system.switch_cpus0.op_class::FloatCmp              0      0.00%     78.30% # Class of executed instruction
system.switch_cpus0.op_class::FloatCvt            128      0.00%     78.30% # Class of executed instruction
system.switch_cpus0.op_class::FloatMult             0      0.00%     78.30% # Class of executed instruction
system.switch_cpus0.op_class::FloatMultAcc            0      0.00%     78.30% # Class of executed instruction
system.switch_cpus0.op_class::FloatDiv              0      0.00%     78.30% # Class of executed instruction
system.switch_cpus0.op_class::FloatMisc             0      0.00%     78.30% # Class of executed instruction
system.switch_cpus0.op_class::FloatSqrt             0      0.00%     78.30% # Class of executed instruction
system.switch_cpus0.op_class::SimdAdd              66      0.00%     78.30% # Class of executed instruction
system.switch_cpus0.op_class::SimdAddAcc            0      0.00%     78.30% # Class of executed instruction
system.switch_cpus0.op_class::SimdAlu             105      0.00%     78.30% # Class of executed instruction
system.switch_cpus0.op_class::SimdCmp               0      0.00%     78.30% # Class of executed instruction
system.switch_cpus0.op_class::SimdCvt             132      0.00%     78.30% # Class of executed instruction
system.switch_cpus0.op_class::SimdMisc             72      0.00%     78.30% # Class of executed instruction
system.switch_cpus0.op_class::SimdMult              0      0.00%     78.30% # Class of executed instruction
system.switch_cpus0.op_class::SimdMultAcc            0      0.00%     78.30% # Class of executed instruction
system.switch_cpus0.op_class::SimdShift            12      0.00%     78.30% # Class of executed instruction
system.switch_cpus0.op_class::SimdShiftAcc            0      0.00%     78.30% # Class of executed instruction
system.switch_cpus0.op_class::SimdDiv               0      0.00%     78.30% # Class of executed instruction
system.switch_cpus0.op_class::SimdSqrt              0      0.00%     78.30% # Class of executed instruction
system.switch_cpus0.op_class::SimdFloatAdd            6      0.00%     78.30% # Class of executed instruction
system.switch_cpus0.op_class::SimdFloatAlu            0      0.00%     78.30% # Class of executed instruction
system.switch_cpus0.op_class::SimdFloatCmp            0      0.00%     78.30% # Class of executed instruction
system.switch_cpus0.op_class::SimdFloatCvt           12      0.00%     78.30% # Class of executed instruction
system.switch_cpus0.op_class::SimdFloatDiv            0      0.00%     78.30% # Class of executed instruction
system.switch_cpus0.op_class::SimdFloatMisc            0      0.00%     78.30% # Class of executed instruction
system.switch_cpus0.op_class::SimdFloatMult            6      0.00%     78.30% # Class of executed instruction
system.switch_cpus0.op_class::SimdFloatMultAcc            0      0.00%     78.30% # Class of executed instruction
system.switch_cpus0.op_class::SimdFloatSqrt            0      0.00%     78.30% # Class of executed instruction
system.switch_cpus0.op_class::SimdReduceAdd            0      0.00%     78.30% # Class of executed instruction
system.switch_cpus0.op_class::SimdReduceAlu            0      0.00%     78.30% # Class of executed instruction
[...]
system.mem_ctrls1.rank0.prePowerDownEnergy            0                       # Energy for precharge power-down per rank (pJ)
system.mem_ctrls1.rank0.selfRefreshEnergy            0                       # Energy for self refresh per rank (pJ)
system.mem_ctrls1.rank0.totalEnergy      897562156215                       # Total energy per rank (pJ)
system.mem_ctrls1.rank0.averagePower       536.544756                       # Core power per rank (mW)
system.mem_ctrls1.rank0.totalIdleTime               0                       # Total Idle time Per DRAM Rank
system.mem_ctrls1.rank0.memoryStateTime::IDLE 407179896438                       # Time in different power states
system.mem_ctrls1.rank0.memoryStateTime::REF  55860220000                       # Time in different power states
system.mem_ctrls1.rank0.memoryStateTime::SREF            0                       # Time in different power states
system.mem_ctrls1.rank0.memoryStateTime::PRE_PDN            0                       # Time in different power states
system.mem_ctrls1.rank0.memoryStateTime::ACT 1209815960063                       # Time in different power states
system.mem_ctrls1.rank0.memoryStateTime::ACT_PDN            0                       # Time in different power states
system.mem_ctrls1.power_state.pwrStateResidencyTicks::UNDEFINED 101064753131501                       # Cumulative time (in ticks) in various power states
system.cpu_voltage_domain.voltage                   1                       # Voltage in Volts
system.iobus.trans_dist::ReadReq                  412                       # Transaction distribution
system.iobus.trans_dist::ReadResp                 412                       # Transaction distribution
system.iobus.trans_dist::WriteReq                7378                       # Transaction distribution
system.iobus.trans_dist::WriteResp               7378                       # Transaction distribution
system.iobus.pkt_count_system.pc.south_bridge.io_apic.int_master::system.ruby.l1_cntrl1.sequencer.pio-slave-port          228                       # Packet count per connected master and slave (bytes)
system.iobus.pkt_count_system.pc.south_bridge.io_apic.int_master::total          228                       # Packet count per connected master and slave (bytes)
system.iobus.pkt_count_system.ruby.l1_cntrl0.sequencer.mem-master-port::system.ruby.l1_cntrl0.sequencer.pio-slave-port         3602                       # Packet count per connected master and slave (bytes)
system.iobus.pkt_count_system.ruby.l1_cntrl0.sequencer.mem-master-port::system.ruby.l1_cntrl1.sequencer.pio-slave-port           66                       # Packet count per connected master and slave (bytes)
system.iobus.pkt_count_system.ruby.l1_cntrl0.sequencer.mem-master-port::system.ruby.l1_cntrl2.sequencer.pio-slave-port           60                       # Packet count per connected master and slave (bytes)
system.iobus.pkt_count_system.ruby.l1_cntrl0.sequencer.mem-master-port::system.ruby.l1_cntrl3.sequencer.pio-slave-port           52                       # Packet count per connected master and slave (bytes)
system.iobus.pkt_count_system.ruby.l1_cntrl0.sequencer.mem-master-port::total         3780                       # Packet count per connected master and slave (bytes)
system.iobus.pkt_count_system.ruby.l1_cntrl1.sequencer.mem-master-port::system.pc.south_bridge.ide.pio           12                       # Packet count per connected master and slave (bytes)
system.iobus.pkt_count_system.ruby.l1_cntrl1.sequencer.mem-master-port::system.pc.com_1.pio          908                       # Packet count per connected master and slave (bytes)
system.iobus.pkt_count_system.ruby.l1_cntrl1.sequencer.mem-master-port::system.ruby.l1_cntrl0.sequencer.pio-slave-port           12                       # Packet count per connected master and slave (bytes)
system.iobus.pkt_count_system.ruby.l1_cntrl1.sequencer.mem-master-port::system.ruby.l1_cntrl1.sequencer.pio-slave-port         3510                       # Packet count per connected master and slave (bytes)
system.iobus.pkt_count_system.ruby.l1_cntrl1.sequencer.mem-master-port::system.ruby.l1_cntrl2.sequencer.pio-slave-port           14                       # Packet count per connected master and slave (bytes)
system.iobus.pkt_count_system.ruby.l1_cntrl1.sequencer.mem-master-port::system.ruby.l1_cntrl3.sequencer.pio-slave-port           12                       # Packet count per connected master and slave (bytes)
system.iobus.pkt_count_system.ruby.l1_cntrl1.sequencer.mem-master-port::total         4468                       # Packet count per connected master and slave (bytes)
system.iobus.pkt_count_system.ruby.l1_cntrl2.sequencer.mem-master-port::system.ruby.l1_cntrl0.sequencer.pio-slave-port           18                       # Packet count per connected master and slave (bytes)
system.iobus.pkt_count_system.ruby.l1_cntrl2.sequencer.mem-master-port::system.ruby.l1_cntrl1.sequencer.pio-slave-port           16                       # Packet count per connected master and slave (bytes)
system.iobus.pkt_count_system.ruby.l1_cntrl2.sequencer.mem-master-port::system.ruby.l1_cntrl2.sequencer.pio-slave-port         3494                       # Packet count per connected master and slave (bytes)
system.iobus.pkt_count_system.ruby.l1_cntrl2.sequencer.mem-master-port::system.ruby.l1_cntrl3.sequencer.pio-slave-port           16                       # Packet count per connected master and slave (bytes)
system.iobus.pkt_count_system.ruby.l1_cntrl2.sequencer.mem-master-port::total         3544                       # Packet count per connected master and slave (bytes)
system.iobus.pkt_count_system.ruby.l1_cntrl3.sequencer.mem-master-port::system.pc.south_bridge.ide.pio           34                       # Packet count per connected master and slave (bytes)
system.iobus.pkt_count_system.ruby.l1_cntrl3.sequencer.mem-master-port::system.ruby.l1_cntrl0.sequencer.pio-slave-port           14                       # Packet count per connected master and slave (bytes)
system.iobus.pkt_count_system.ruby.l1_cntrl3.sequencer.mem-master-port::system.ruby.l1_cntrl1.sequencer.pio-slave-port           16                       # Packet count per connected master and slave (bytes)
system.iobus.pkt_count_system.ruby.l1_cntrl3.sequencer.mem-master-port::system.ruby.l1_cntrl2.sequencer.pio-slave-port           14                       # Packet count per connected master and slave (bytes)
system.iobus.pkt_count_system.ruby.l1_cntrl3.sequencer.mem-master-port::system.ruby.l1_cntrl3.sequencer.pio-slave-port         3482                       # Packet count per connected master and slave (bytes)
system.iobus.pkt_count_system.ruby.l1_cntrl3.sequencer.mem-master-port::total         3560                       # Packet count per connected master and slave (bytes)
system.iobus.pkt_count::total                   15580                       # Packet count per connected master and slave (bytes)
system.iobus.pkt_size_system.pc.south_bridge.io_apic.int_master::system.ruby.l1_cntrl1.sequencer.pio-slave-port          456                       # Cumulative packet size per connected master and slave (bytes)
system.iobus.pkt_size_system.pc.south_bridge.io_apic.int_master::total          456                       # Cumulative packet size per connected master and slave (bytes)
system.iobus.pkt_size_system.ruby.l1_cntrl0.sequencer.mem-master-port::system.ruby.l1_cntrl0.sequencer.pio-slave-port         7204                       # Cumulative packet size per connected master and slave (bytes)
system.iobus.pkt_size_system.ruby.l1_cntrl0.sequencer.mem-master-port::system.ruby.l1_cntrl1.sequencer.pio-slave-port          132                       # Cumulative packet size per connected master and slave (bytes)
system.iobus.pkt_size_system.ruby.l1_cntrl0.sequencer.mem-master-port::system.ruby.l1_cntrl2.sequencer.pio-slave-port          120                       # Cumulative packet size per connected master and slave (bytes)
system.iobus.pkt_size_system.ruby.l1_cntrl0.sequencer.mem-master-port::system.ruby.l1_cntrl3.sequencer.pio-slave-port          104                       # Cumulative packet size per connected master and slave (bytes)
system.iobus.pkt_size_system.ruby.l1_cntrl0.sequencer.mem-master-port::total         7560                       # Cumulative packet size per connected master and slave (bytes)
system.iobus.pkt_size_system.ruby.l1_cntrl1.sequencer.mem-master-port::system.pc.south_bridge.ide.pio            6                       # Cumulative packet size per connected master and slave (bytes)
system.iobus.pkt_size_system.ruby.l1_cntrl1.sequencer.mem-master-port::system.pc.com_1.pio          454                       # Cumulative packet size per connected master and slave (bytes)
system.iobus.pkt_size_system.ruby.l1_cntrl1.sequencer.mem-master-port::system.ruby.l1_cntrl0.sequencer.pio-slave-port           24                       # Cumulative packet size per connected master and slave (bytes)
system.iobus.pkt_size_system.ruby.l1_cntrl1.sequencer.mem-master-port::system.ruby.l1_cntrl1.sequencer.pio-slave-port         7020                       # Cumulative packet size per connected master and slave (bytes)
system.iobus.pkt_size_system.ruby.l1_cntrl1.sequencer.mem-master-port::system.ruby.l1_cntrl2.sequencer.pio-slave-port           28                       # Cumulative packet size per connected master and slave (bytes)
system.iobus.pkt_size_system.ruby.l1_cntrl1.sequencer.mem-master-port::system.ruby.l1_cntrl3.sequencer.pio-slave-port           24                       # Cumulative packet size per connected master and slave (bytes)
system.iobus.pkt_size_system.ruby.l1_cntrl1.sequencer.mem-master-port::total         7556                       # Cumulative packet size per connected master and slave (bytes)
system.iobus.pkt_size_system.ruby.l1_cntrl2.sequencer.mem-master-port::system.ruby.l1_cntrl0.sequencer.pio-slave-port           36                       # Cumulative packet size per connected master and slave (bytes)
system.iobus.pkt_size_system.ruby.l1_cntrl2.sequencer.mem-master-port::system.ruby.l1_cntrl1.sequencer.pio-slave-port           32                       # Cumulative packet size per connected master and slave (bytes)
system.iobus.pkt_size_system.ruby.l1_cntrl2.sequencer.mem-master-port::system.ruby.l1_cntrl2.sequencer.pio-slave-port         6988                       # Cumulative packet size per connected master and slave (bytes)
system.iobus.pkt_size_system.ruby.l1_cntrl2.sequencer.mem-master-port::system.ruby.l1_cntrl3.sequencer.pio-slave-port           32                       # Cumulative packet size per connected master and slave (bytes)
system.iobus.pkt_size_system.ruby.l1_cntrl2.sequencer.mem-master-port::total         7088                       # Cumulative packet size per connected master and slave (bytes)
system.iobus.pkt_size_system.ruby.l1_cntrl3.sequencer.mem-master-port::system.pc.south_bridge.ide.pio           20                       # Cumulative packet size per connected master and slave (bytes)
system.iobus.pkt_size_system.ruby.l1_cntrl3.sequencer.mem-master-port::system.ruby.l1_cntrl0.sequencer.pio-slave-port           28                       # Cumulative packet size per connected master and slave (bytes)
system.iobus.pkt_size_system.ruby.l1_cntrl3.sequencer.mem-master-port::system.ruby.l1_cntrl1.sequencer.pio-slave-port           32                       # Cumulative packet size per connected master and slave (bytes)
system.iobus.pkt_size_system.ruby.l1_cntrl3.sequencer.mem-master-port::system.ruby.l1_cntrl2.sequencer.pio-slave-port           28                       # Cumulative packet size per connected master and slave (bytes)
system.iobus.pkt_size_system.ruby.l1_cntrl3.sequencer.mem-master-port::system.ruby.l1_cntrl3.sequencer.pio-slave-port         6964                       # Cumulative packet size per connected master and slave (bytes)
system.iobus.pkt_size_system.ruby.l1_cntrl3.sequencer.mem-master-port::total         7072                       # Cumulative packet size per connected master and slave (bytes)
system.iobus.pkt_size::total                    29732                       # Cumulative packet size per connected master and slave (bytes)
system.iobus.reqLayer2.occupancy                43000                       # Layer occupancy (ticks)
system.iobus.reqLayer2.utilization                0.0                       # Layer utilization (%)
system.iobus.power_state.pwrStateResidencyTicks::UNDEFINED 101064753131501                       # Cumulative time (in ticks) in various power states
system.iobus.reqLayer19.occupancy             4675923                       # Layer occupancy (ticks)
system.iobus.reqLayer19.utilization               0.0                       # Layer utilization (%)
system.iobus.reqLayer17.occupancy             4742870                       # Layer occupancy (ticks)
system.iobus.reqLayer17.utilization               0.0                       # Layer utilization (%)
system.iobus.reqLayer12.occupancy              591500                       # Layer occupancy (ticks)
system.iobus.reqLayer12.utilization               0.0                       # Layer utilization (%)
system.iobus.reqLayer18.occupancy             4949426                       # Layer occupancy (ticks)
system.iobus.reqLayer18.utilization               0.0                       # Layer utilization (%)
system.iobus.respLayer9.occupancy             2661500                       # Layer occupancy (ticks)
system.iobus.respLayer9.utilization               0.0                       # Layer utilization (%)
system.iobus.respLayer5.occupancy             3453500                       # Layer occupancy (ticks)
system.iobus.respLayer5.utilization               0.0                       # Layer utilization (%)
system.iobus.respLayer7.occupancy             2653000                       # Layer occupancy (ticks)
system.iobus.respLayer7.utilization               0.0                       # Layer utilization (%)
system.iobus.respLayer0.occupancy              167499                       # Layer occupancy (ticks)
system.iobus.respLayer0.utilization               0.0                       # Layer utilization (%)
system.iobus.respLayer3.occupancy             2823000                       # Layer occupancy (ticks)
system.iobus.respLayer3.utilization               0.0                       # Layer utilization (%)
system.iobus.reqLayer20.occupancy             4807825                       # Layer occupancy (ticks)
system.iobus.reqLayer20.utilization               0.0                       # Layer utilization (%)

---------- End Simulation Statistics   ----------
ation (%)
system.iobus.respLayer0.occupancy              632206                       # Layer occupancy (ticks)
system.iobus.respLayer0.utilization               0.0                       # Layer utilization (%)
system.iobus.respLayer3.occupancy             2799500                       # Layer occupancy (ticks)
system.iobus.respLayer3.utilization               0.0                       # Layer utilization (%)
system.iobus.reqLayer20.occupancy             4713378                       # Layer occupancy (ticks)
system.iobus.reqLayer20.utilization               0.0                       # Layer utilization (%)

---------- End Simulation Statistics   ----------
encer.pio-slave-port           28                       # Cumulative packet size per connected master and slave (bytes)
system.iobus.pkt_size_system.ruby.l1_cntrl2.sequencer.mem-master-port::system.ruby.l1_cntrl2.sequencer.pio-slave-port         7072                       # Cumulative packet size per connected master and slave (bytes)
system.iobus.pkt_size_system.ruby.l1_cntrl2.sequencer.mem-master-port::system.ruby.l1_cntrl3.sequencer.pio-slave-port           28                       # Cumulative packet size per connected master and slave (bytes)
system.iobus.pkt_size_system.ruby.l1_cntrl2.sequencer.mem-master-port::total        12920                       # Cumulative packet size per connected master and slave (bytes)
system.iobus.pkt_size_system.ruby.l1_cntrl3.sequencer.mem-master-port::system.pc.com_1.pio            1                       # Cumulative packet size per connected master and slave (bytes)
system.iobus.pkt_size_system.ruby.l1_cntrl3.sequencer.mem-master-port::system.ruby.l1_cntrl0.sequencer.pio-slave-port           24                       # Cumulative packet size per connected master and slave (bytes)
system.iobus.pkt_size_system.ruby.l1_cntrl3.sequencer.mem-master-port::system.ruby.l1_cntrl1.sequencer.pio-slave-port           28                       # Cumulative packet size per connected master and slave (bytes)
system.iobus.pkt_size_system.ruby.l1_cntrl3.sequencer.mem-master-port::system.ruby.l1_cntrl2.sequencer.pio-slave-port           24                       # Cumulative packet size per connected master and slave (bytes)
system.iobus.pkt_size_system.ruby.l1_cntrl3.sequencer.mem-master-port::system.ruby.l1_cntrl3.sequencer.pio-slave-port         7004                       # Cumulative packet size per connected master and slave (bytes)
system.iobus.pkt_size_system.ruby.l1_cntrl3.sequencer.mem-master-port::total         7081                       # Cumulative packet size per connected master and slave (bytes)
system.iobus.pkt_size::total                    40050                       # Cumulative packet size per connected master and slave (bytes)
system.iobus.reqLayer2.occupancy             11772500                       # Layer occupancy (ticks)
system.iobus.reqLayer2.utilization                0.0                       # Layer utilization (%)
system.iobus.power_state.pwrStateResidencyTicks::UNDEFINED 99500619541501                       # Cumulative time (in ticks) in various power states
system.iobus.reqLayer19.occupancy             4750941                       # Layer occupancy (ticks)
system.iobus.reqLayer19.utilization               0.0                       # Layer utilization (%)
system.iobus.reqLayer17.occupancy             5003259                       # Layer occupancy (ticks)
system.iobus.reqLayer17.utilization               0.0                       # Layer utilization (%)
system.iobus.reqLayer12.occupancy              525500                       # Layer occupancy (ticks)
system.iobus.reqLayer12.utilization               0.0                       # Layer utilization (%)
system.iobus.reqLayer18.occupancy             6650859                       # Layer occupancy (ticks)
system.iobus.reqLayer18.utilization               0.0                       # Layer utilization (%)
system.iobus.respLayer9.occupancy             2651000                       # Layer occupancy (ticks)
system.iobus.respLayer9.utilization               0.0                       # Layer utilization (%)
system.iobus.respLayer5.occupancy             6891000                       # Layer occupancy (ticks)
system.iobus.respLayer5.utilization               0.0                       # Layer utilization (%)
system.iobus.respLayer7.occupancy             8729000                       # Layer occupancy (ticks)
system.iobus.respLayer7.utilization               0.0                       # Layer utilization (%)
system.iobus.respLayer0.occupancy              663711                       # Layer occupancy (ticks)
system.iobus.respLayer0.utilization               0.0                       # Layer utilization (%)
system.iobus.respLayer3.occupancy             2873000                       # Layer occupancy (ticks)
system.iobus.respLayer3.utilization               0.0                       # Layer utilization (%)
system.iobus.reqLayer20.occupancy             4731886                       # Layer occupancy (ticks)
system.iobus.reqLayer20.utilization               0.0                       # Layer utilization (%)

---------- End Simulation Statistics   ----------
tatistics   ----------
