
---------- Begin Simulation Statistics ----------
final_tick                               104133641994001                       # Number of ticks from beginning of simulation (restored from checkpoints and never reset)
host_inst_rate                                 633480                       # Simulator instruction rate (inst/s)
host_mem_usage                                1982992                       # Number of bytes of host memory used
host_op_rate                                   835467                       # Simulator op (including micro ops) rate (op/s)
host_seconds                                 13750.19                       # Real time elapsed on the host
host_tick_rate                              157522466                       # Simulator tick rate (ticks/s)
sim_freq                                 1000000000000                       # Frequency of simulated ticks
sim_insts                                  8710475408                       # Number of instructions simulated
sim_ops                                   11487827311                       # Number of ops (including micro ops) simulated
sim_seconds                                  2.165965                       # Number of seconds simulated
sim_ticks                                2165964611001                       # Number of ticks simulated
system.cpu0.committedInsts                          0                       # Number of instructions committed
system.cpu0.dtb.rdAccesses                          0                       # TLB accesses on read requests
system.cpu0.dtb.rdMisses                            0                       # TLB misses on read requests
system.cpu0.dtb.wrAccesses                          0                       # TLB accesses on write requests
system.cpu0.dtb.wrMisses                            0                       # TLB misses on write requests
system.cpu0.itb.rdAccesses                          0                       # TLB accesses on read requests
system.cpu0.itb.rdMisses                            0                       # TLB misses on read requests
system.cpu0.itb.wrAccesses                          0                       # TLB accesses on write requests
system.cpu0.itb.wrMisses                            0                       # TLB misses on write requests
system.cpu0.kern.inst.arm                           0                       # number of arm instructions executed
system.cpu0.kern.inst.quiesce                       0                       # number of quiesce instructions executed
system.cpu0.numCoalescedMMIO                        0                       # number of coalesced memory mapped IO requests
system.cpu0.numCycles                               0                       # number of cpu cycles simulated
system.cpu0.numExitSignal                           0                       # exits due to signal delivery
system.cpu0.numHalt                                 0                       # number of VM exits due to wait for interrupt instructions
system.cpu0.numHypercalls                           0                       # number of hypercalls
system.cpu0.numIO                                   0                       # number of VM exits due to legacy IO
system.cpu0.numInterrupts                           0                       # number of interrupts delivered
system.cpu0.numMMIO                                 0                       # number of VM exits due to memory mapped IO
system.cpu0.numVMExits                              0                       # total number of KVM exits
system.cpu0.numVMHalfEntries                        0                       # number of KVM entries to finalize pending operations
system.cpu0.numWorkItemsCompleted                   0                       # number of work items this cpu completed
system.cpu0.numWorkItemsStarted                     0                       # number of work items this cpu started
system.cpu1.committedInsts                          0                       # Number of instructions committed
system.cpu1.dtb.rdAccesses                          0                       # TLB accesses on read requests
system.cpu1.dtb.rdMisses                            0                       # TLB misses on read requests
system.cpu1.dtb.wrAccesses                          0                       # TLB accesses on write requests
system.cpu1.dtb.wrMisses                            0                       # TLB misses on write requests
system.cpu1.itb.rdAccesses                          0                       # TLB accesses on read requests
system.cpu1.itb.rdMisses                            0                       # TLB misses on read requests
system.cpu1.itb.wrAccesses                          0                       # TLB accesses on write requests
system.cpu1.itb.wrMisses                            0                       # TLB misses on write requests
system.cpu1.kern.inst.arm                           0                       # number of arm instructions executed
system.cpu1.kern.inst.quiesce                       0                       # number of quiesce instructions executed
system.cpu1.numCoalescedMMIO                        0                       # number of coalesced memory mapped IO requests
system.cpu1.numCycles                               0                       # number of cpu cycles simulated
system.cpu1.numExitSignal                           0                       # exits due to signal delivery
system.cpu1.numHalt                                 0                       # number of VM exits due to wait for interrupt instructions
system.cpu1.numHypercalls                           0                       # number of hypercalls
system.cpu1.numIO                                   0                       # number of VM exits due to legacy IO
system.cpu1.numInterrupts                           0                       # number of interrupts delivered
system.cpu1.numMMIO                                 0                       # number of VM exits due to memory mapped IO
system.cpu1.numVMExits                              0                       # total number of KVM exits
system.cpu1.numVMHalfEntries                        0                       # number of KVM entries to finalize pending operations
system.cpu1.numWorkItemsCompleted                   0                       # number of work items this cpu completed
system.cpu1.numWorkItemsStarted                     0                       # number of work items this cpu started
system.cpu2.committedInsts                          0                       # Number of instructions committed
system.cpu2.dtb.rdAccesses                          0                       # TLB accesses on read requests
system.cpu2.dtb.rdMisses                            0                       # TLB misses on read requests
system.cpu2.dtb.wrAccesses                          0                       # TLB accesses on write requests
system.cpu2.dtb.wrMisses                            0                       # TLB misses on write requests
system.cpu2.itb.rdAccesses                          0                       # TLB accesses on read requests
system.cpu2.itb.rdMisses                            0                       # TLB misses on read requests
system.cpu2.itb.wrAccesses                          0                       # TLB accesses on write requests
system.cpu2.itb.wrMisses                            0                       # TLB misses on write requests
system.cpu2.kern.inst.arm                           0                       # number of arm instructions executed
system.cpu2.kern.inst.quiesce                       0                       # number of quiesce instructions executed
system.cpu2.numCoalescedMMIO                        0                       # number of coalesced memory mapped IO requests
system.cpu2.numCycles                               0                       # number of cpu cycles simulated
system.cpu2.numExitSignal                           0                       # exits due to signal delivery
system.cpu2.numHalt                                 0                       # number of VM exits due to wait for interrupt instructions
system.cpu2.numHypercalls                           0                       # number of hypercalls
system.cpu2.numIO                                   0                       # number of VM exits due to legacy IO
system.cpu2.numInterrupts                           0                       # number of interrupts delivered
system.cpu2.numMMIO                                 0                       # number of VM exits due to memory mapped IO
system.cpu2.numVMExits                              0                       # total number of KVM exits
system.cpu2.numVMHalfEntries                        0                       # number of KVM entries to finalize pending operations
system.cpu2.numWorkItemsCompleted                   0                       # number of work items this cpu completed
system.cpu2.numWorkItemsStarted                     0                       # number of work items this cpu started
system.cpu3.committedInsts                          0                       # Number of instructions committed
system.cpu3.dtb.rdAccesses                          0                       # TLB accesses on read requests
system.cpu3.dtb.rdMisses                            0                       # TLB misses on read requests
system.cpu3.dtb.wrAccesses                          0                       # TLB accesses on write requests
system.cpu3.dtb.wrMisses                            0                       # TLB misses on write requests
system.cpu3.itb.rdAccesses                          0                       # TLB accesses on read requests
system.cpu3.itb.rdMisses                            0                       # TLB misses on read requests
system.cpu3.itb.wrAccesses                          0                       # TLB accesses on write requests
system.cpu3.itb.wrMisses                            0                       # TLB misses on write requests
system.cpu3.kern.inst.arm                           0                       # number of arm instructions executed
system.cpu3.kern.inst.quiesce                       0                       # number of quiesce instructions executed
system.cpu3.numCoalescedMMIO                        0                       # number of coalesced memory mapped IO requests
system.cpu3.numCycles                               0                       # number of cpu cycles simulated
system.cpu3.numExitSignal                           0                       # exits due to signal delivery
system.cpu3.numHalt                                 0                       # number of VM exits due to wait for interrupt instructions
system.cpu3.numHypercalls                           0                       # number of hypercalls
system.cpu3.numIO                                   0                       # number of VM exits due to legacy IO
system.cpu3.numInterrupts                           0                       # number of interrupts delivered
system.cpu3.numMMIO                                 0                       # number of VM exits due to memory mapped IO
system.cpu3.numVMExits                              0                       # total number of KVM exits
system.cpu3.numVMHalfEntries                        0                       # number of KVM entries to finalize pending operations
system.cpu3.numWorkItemsCompleted                   0                       # number of work items this cpu completed
system.cpu3.numWorkItemsStarted                     0                       # number of work items this cpu started
system.pc.south_bridge.ide.disks.dma_read_bytes       262144                       # Number of bytes transfered via DMA reads (not PRD).
system.pc.south_bridge.ide.disks.dma_read_full_pages           64                       # Number of full page size DMA reads (not PRD).
system.pc.south_bridge.ide.disks.dma_read_txs           64                       # Number of DMA read transactions (not PRD).
system.pc.south_bridge.ide.disks.dma_write_bytes      2498560                       # Number of bytes transfered via DMA writes.
system.pc.south_bridge.ide.disks.dma_write_full_pages          610                       # Number of full page size DMA writes.
system.pc.south_bridge.ide.disks.dma_write_txs          610                       # Number of DMA write transactions.
system.ruby.DMA_Controller.I.allocI_load |        4141    100.00%    100.00% |           0      0.00%    100.00%
system.ruby.DMA_Controller.I.allocI_load::total         4141                      
system.ruby.DMA_Controller.I.allocI_store |       39040    100.00%    100.00% |           0      0.00%    100.00%
system.ruby.DMA_Controller.I.allocI_store::total        39040                      
system.ruby.DMA_Controller.I.deallocnet0from_in |       38557    100.00%    100.00% |           0      0.00%    100.00%
system.ruby.DMA_Controller.I.deallocnet0from_in::total        38557                      
system.ruby.DMA_Controller.I.deallocnet2from_in |        3602    100.00%    100.00% |           0      0.00%    100.00%
system.ruby.DMA_Controller.I.deallocnet2from_in::total         3602                      
system.ruby.DMA_Controller.M.allocTBE    |       38791    100.00%    100.00% |           0      0.00%    100.00%
system.ruby.DMA_Controller.M.allocTBE::total        38791                      
system.ruby.DMA_Controller.M.externalstoreMnet1from_in |       39040    100.00%    100.00% |           0      0.00%    100.00%
system.ruby.DMA_Controller.M.externalstoreMnet1from_in::total        39040                      
system.ruby.DMA_Controller.M_evict.Stallmandatory_in |      573905    100.00%    100.00% |           0      0.00%    100.00%
system.ruby.DMA_Controller.M_evict.Stallmandatory_in::total       573905                      
system.ruby.DMA_Controller.S.SloadSEvent |         152    100.00%    100.00% |           0      0.00%    100.00%
system.ruby.DMA_Controller.S.SloadSEvent::total          152                      
system.ruby.DMA_Controller.S.allocTBE    |        3605    100.00%    100.00% |           0      0.00%    100.00%
system.ruby.DMA_Controller.S.allocTBE::total         3605                      
system.ruby.DMA_Controller.S.deallocTBE  |         234    100.00%    100.00% |           0      0.00%    100.00%
system.ruby.DMA_Controller.S.deallocTBE::total          234                      
system.ruby.DMA_Controller.S.externalloadSnet0from_in |        4074    100.00%    100.00% |           0      0.00%    100.00%
system.ruby.DMA_Controller.S.externalloadSnet0from_in::total         4074                      
system.ruby.DMA_Controller.S.externalloadSrespfrom_in |          67    100.00%    100.00% |           0      0.00%    100.00%
system.ruby.DMA_Controller.S.externalloadSrespfrom_in::total           67                      
system.ruby.DMA_Controller.S_evict.Stallmandatory_in |       11877    100.00%    100.00% |           0      0.00%    100.00%
system.ruby.DMA_Controller.S_evict.Stallmandatory_in::total        11877                      
system.ruby.DMA_Controller.SloadSEvent   |         152    100.00%    100.00% |           0      0.00%    100.00%
system.ruby.DMA_Controller.SloadSEvent::total          152                      
system.ruby.DMA_Controller.Stallmandatory_in |      585782    100.00%    100.00% |           0      0.00%    100.00%
system.ruby.DMA_Controller.Stallmandatory_in::total       585782                      
system.ruby.DMA_Controller.allocI_load   |        4141    100.00%    100.00% |           0      0.00%    100.00%
system.ruby.DMA_Controller.allocI_load::total         4141                      
system.ruby.DMA_Controller.allocI_store  |       39040    100.00%    100.00% |           0      0.00%    100.00%
system.ruby.DMA_Controller.allocI_store::total        39040                      
system.ruby.DMA_Controller.allocTBE      |       42396    100.00%    100.00% |           0      0.00%    100.00%
system.ruby.DMA_Controller.allocTBE::total        42396                      
system.ruby.DMA_Controller.deallocTBE    |         234    100.00%    100.00% |           0      0.00%    100.00%
system.ruby.DMA_Controller.deallocTBE::total          234                      
system.ruby.DMA_Controller.deallocnet0from_in |       38557    100.00%    100.00% |           0      0.00%    100.00%
system.ruby.DMA_Controller.deallocnet0from_in::total        38557                      
system.ruby.DMA_Controller.deallocnet2from_in |        3602    100.00%    100.00% |           0      0.00%    100.00%
system.ruby.DMA_Controller.deallocnet2from_in::total         3602                      
system.ruby.DMA_Controller.externalloadSnet0from_in |        4074    100.00%    100.00% |           0      0.00%    100.00%
system.ruby.DMA_Controller.externalloadSnet0from_in::total         4074                      
system.ruby.DMA_Controller.externalloadSrespfrom_in |          67    100.00%    100.00% |           0      0.00%    100.00%
system.ruby.DMA_Controller.externalloadSrespfrom_in::total           67                      
system.ruby.DMA_Controller.externalstoreMnet1from_in |       39040    100.00%    100.00% |           0      0.00%    100.00%
system.ruby.DMA_Controller.externalstoreMnet1from_in::total        39040                      
system.ruby.Directory_Controller.I.allocTBE |     5361226     25.36%     25.36% |     5302888     25.08%     50.44% |     5237341     24.77%     75.22% |     5239105     24.78%    100.00%
system.ruby.Directory_Controller.I.allocTBE::total     21140560                      
system.ruby.Directory_Controller.I.deallocTBE |     5360283     25.36%     25.36% |     5301914     25.08%     50.44% |     5236416     24.77%     75.22% |     5238176     24.78%    100.00%
system.ruby.Directory_Controller.I.deallocTBE::total     21136789                      
system.ruby.Directory_Controller.I_GetSL1C1_0.Stallreqto_in |         349     20.15%     20.15% |         881     50.87%     71.02% |         272     15.70%     86.72% |         230     13.28%    100.00%
system.ruby.Directory_Controller.I_GetSL1C1_0.Stallreqto_in::total         1732                      
system.ruby.Directory_Controller.M.allocTBE |     1934786     25.01%     25.01% |     1925263     24.89%     49.89% |     1941080     25.09%     74.98% |     1935326     25.02%    100.00%
system.ruby.Directory_Controller.M.allocTBE::total      7736455                      
system.ruby.Directory_Controller.M.deallocTBE |     1935065     25.01%     25.01% |     1925546     24.89%     49.89% |     1941353     25.09%     74.98% |     1935587     25.02%    100.00%
system.ruby.Directory_Controller.M.deallocTBE::total      7737551                      
system.ruby.Directory_Controller.M_GetS.Progress |        5271     32.90%     32.90% |        3959     24.71%     57.61% |        3509     21.90%     79.51% |        3283     20.49%    100.00%
system.ruby.Directory_Controller.M_GetS.Progress::total        16022                      
system.ruby.Directory_Controller.M_GetS.Stallreqto_in |          35     52.24%     52.24% |           3      4.48%     56.72% |          15     22.39%     79.10% |          14     20.90%    100.00%
system.ruby.Directory_Controller.M_GetS.Stallreqto_in::total           67                      
system.ruby.Directory_Controller.M_GetS_WBL1C1_0.Stallreqto_in |         262     25.51%     25.51% |         327     31.84%     57.35% |         215     20.93%     78.29% |         223     21.71%    100.00%
system.ruby.Directory_Controller.M_GetS_WBL1C1_0.Stallreqto_in::total         1027                      
system.ruby.Directory_Controller.Progress |        5271     32.90%     32.90% |        3959     24.71%     57.61% |        3509     21.90%     79.51% |        3283     20.49%    100.00%
system.ruby.Directory_Controller.Progress::total        16022                      
system.ruby.Directory_Controller.S.allocTBE |     5266979     25.74%     25.74% |     5114480     24.99%     50.73% |     5128218     25.06%     75.79% |     4955256     24.21%    100.00%
system.ruby.Directory_Controller.S.allocTBE::total     20464933                      
system.ruby.Directory_Controller.S.deallocTBE |     5267643     25.74%     25.74% |     5115171     24.99%     50.73% |     5128870     25.06%     75.79% |     4955924     24.21%    100.00%
system.ruby.Directory_Controller.S.deallocTBE::total     20467608                      
system.ruby.Directory_Controller.S_GetML1C1_0.Stallreqto_in |           4     57.14%     57.14% |           0      0.00%     57.14% |           3     42.86%    100.00% |           0      0.00%    100.00%
system.ruby.Directory_Controller.S_GetML1C1_0.Stallreqto_in::total            7                      
system.ruby.Directory_Controller.S_GetML1C1_1.Stallreqto_in |          14     50.00%     50.00% |           0      0.00%     50.00% |           1      3.57%     53.57% |          13     46.43%    100.00%
system.ruby.Directory_Controller.S_GetML1C1_1.Stallreqto_in::total           28                      
system.ruby.Directory_Controller.S_GetSL1C1_0.Stallreqto_in |         588     29.98%     29.98% |         597     30.44%     60.43% |         386     19.68%     80.11% |         390     19.89%    100.00%
system.ruby.Directory_Controller.S_GetSL1C1_0.Stallreqto_in::total         1961                      
system.ruby.Directory_Controller.Stallreqto_in |        1252     25.96%     25.96% |        1808     37.49%     63.46% |         892     18.50%     81.96% |         870     18.04%    100.00%
system.ruby.Directory_Controller.Stallreqto_in::total         4822                      
system.ruby.Directory_Controller.allocTBE |    12562991     25.46%     25.46% |    12342631     25.01%     50.48% |    12306639     24.94%     75.42% |    12129687     24.58%    100.00%
system.ruby.Directory_Controller.allocTBE::total     49341948                      
system.ruby.Directory_Controller.deallocTBE |    12562991     25.46%     25.46% |    12342631     25.01%     50.48% |    12306639     24.94%     75.42% |    12129687     24.58%    100.00%
system.ruby.Directory_Controller.deallocTBE::total     49341948                      
system.ruby.IFETCH.hit_latency_hist_seqr::bucket_size            1                      
system.ruby.IFETCH.hit_latency_hist_seqr::max_bucket            9                      
system.ruby.IFETCH.hit_latency_hist_seqr::samples   5255484899                      
system.ruby.IFETCH.hit_latency_hist_seqr |  5255484899    100.00%    100.00% |           0      0.00%    100.00% |           0      0.00%    100.00% |           0      0.00%    100.00% |           0      0.00%    100.00% |           0      0.00%    100.00% |           0      0.00%    100.00% |           0      0.00%    100.00% |           0      0.00%    100.00% |           0      0.00%    100.00%
system.ruby.IFETCH.hit_latency_hist_seqr::total   5255484899                      
system.ruby.IFETCH.latency_hist_seqr::bucket_size            1                      
system.ruby.IFETCH.latency_hist_seqr::max_bucket            9                      
system.ruby.IFETCH.latency_hist_seqr::samples   5258875704                      
system.ruby.IFETCH.latency_hist_seqr     |  5258875704    100.00%    100.00% |           0      0.00%    100.00% |           0      0.00%    100.00% |           0      0.00%    100.00% |           0      0.00%    100.00% |           0      0.00%    100.00% |           0      0.00%    100.00% |           0      0.00%    100.00% |           0      0.00%    100.00% |           0      0.00%    100.00%
system.ruby.IFETCH.latency_hist_seqr::total   5258875704                      
system.ruby.IFETCH.miss_latency_hist_seqr::bucket_size            1                      
system.ruby.IFETCH.miss_latency_hist_seqr::max_bucket            9                      
system.ruby.IFETCH.miss_latency_hist_seqr::samples      3390805                      
system.ruby.IFETCH.miss_latency_hist_seqr |     3390805    100.00%    100.00% |           0      0.00%    100.00% |           0      0.00%    100.00% |           0      0.00%    100.00% |           0      0.00%    100.00% |           0      0.00%    100.00% |           0      0.00%    100.00% |           0      0.00%    100.00% |           0      0.00%    100.00% |           0      0.00%    100.00%
system.ruby.IFETCH.miss_latency_hist_seqr::total      3390805                      
system.ruby.L1Cache_Controller.I.allocI_load |     5070160     28.59%     28.59% |     4293743     24.22%     52.81% |     4331723     24.43%     77.24% |     4035867     22.76%    100.00%
system.ruby.L1Cache_Controller.I.allocI_load::total     17731493                      
system.ruby.L1Cache_Controller.I.allocI_store |     2094978     34.11%     34.11% |     1350798     22.00%     56.11% |     1372781     22.35%     78.46% |     1322681     21.54%    100.00%
system.ruby.L1Cache_Controller.I.allocI_store::total      6141238                      
system.ruby.L1Cache_Controller.I.deallocnet0from_in |     2584495     33.64%     33.64% |     1702215     22.16%     55.80% |     1727594     22.49%     78.29% |     1667565     21.71%    100.00%
system.ruby.L1Cache_Controller.I.deallocnet0from_in::total      7681869                      
system.ruby.L1Cache_Controller.I.deallocnet1from_in |           1     14.29%     14.29% |           2     28.57%     42.86% |           2     28.57%     71.43% |           2     28.57%    100.00%
system.ruby.L1Cache_Controller.I.deallocnet1from_in::total            7                      
system.ruby.L1Cache_Controller.I.deallocnet2from_in |     4579618     28.29%     28.29% |     3941336     24.35%     52.64% |     3975901     24.56%     77.20% |     3690012     22.80%    100.00%
system.ruby.L1Cache_Controller.I.deallocnet2from_in::total     16186867                      
system.ruby.L1Cache_Controller.I_evict.Progress |           1     14.29%     14.29% |           2     28.57%     42.86% |           2     28.57%     71.43% |           2     28.57%    100.00%
system.ruby.L1Cache_Controller.I_evict.Progress::total            7                      
system.ruby.L1Cache_Controller.I_evict.Stallmandatory_in |           1     10.00%     10.00% |           3     30.00%     40.00% |           3     30.00%     70.00% |           3     30.00%    100.00%
system.ruby.L1Cache_Controller.I_evict.Stallmandatory_in::total           10                      
system.ruby.L1Cache_Controller.I_store.Progress |           2     40.00%     40.00% |           0      0.00%     40.00% |           3     60.00%    100.00% |           0      0.00%    100.00%
system.ruby.L1Cache_Controller.I_store.Progress::total            5                      
system.ruby.L1Cache_Controller.I_store.Stallnet0from_in |           6     26.09%     26.09% |           2      8.70%     34.78% |           7     30.43%     65.22% |           8     34.78%    100.00%
system.ruby.L1Cache_Controller.I_store.Stallnet0from_in::total           23                      
system.ruby.L1Cache_Controller.I_store_GetM_Ack_AD.Progress |       11684     94.75%     94.75% |         202      1.64%     96.38% |         307      2.49%     98.87% |         139      1.13%    100.00%
system.ruby.L1Cache_Controller.I_store_GetM_Ack_AD.Progress::total        12332                      
system.ruby.L1Cache_Controller.I_store_GetM_Ack_AD.Stallnet0from_in |           0      0.00%      0.00% |           4     66.67%     66.67% |           2     33.33%    100.00% |           0      0.00%    100.00%
system.ruby.L1Cache_Controller.I_store_GetM_Ack_AD.Stallnet0from_in::total            6                      
system.ruby.L1Cache_Controller.M.MloadMEvent |    91578472     27.88%     27.88% |    78959380     24.04%     51.93% |    80271696     24.44%     76.37% |    77605881     23.63%    100.00%
system.ruby.L1Cache_Controller.M.MloadMEvent::total    328415429                      
system.ruby.L1Cache_Controller.M.MstoreMEvent |    70381480     28.94%     28.94% |    57538677     23.66%     52.60% |    57951992     23.83%     76.43% |    57328601     23.57%    100.00%
system.ruby.L1Cache_Controller.M.MstoreMEvent::total    243200750                      
system.ruby.L1Cache_Controller.M.allocTBE |     2591825     33.67%     33.67% |     1705344     22.15%     55.82% |     1730345     22.48%     78.30% |     1670143     21.70%    100.00%
system.ruby.L1Cache_Controller.M.allocTBE::total      7697657                      
system.ruby.L1Cache_Controller.M.externalstoreMnet1from_in |     2575112     33.57%     33.57% |     1701683     22.18%     55.75% |     1727219     22.51%     78.26% |     1667619     21.74%    100.00%
system.ruby.L1Cache_Controller.M.externalstoreMnet1from_in::total      7671633                      
system.ruby.L1Cache_Controller.M.externalstoreMrespfrom_in |       17171     63.90%     63.90% |        3772     14.04%     77.94% |        3287     12.23%     90.17% |        2641      9.83%    100.00%
system.ruby.L1Cache_Controller.M.externalstoreMrespfrom_in::total        26871                      
system.ruby.L1Cache_Controller.M_evict.Stallmandatory_in |         722     18.68%     18.68% |        1052     27.22%     45.90% |        1255     32.47%     78.37% |         836     21.63%    100.00%
system.ruby.L1Cache_Controller.M_evict.Stallmandatory_in::total         3865                      
system.ruby.L1Cache_Controller.MloadMEvent |    91578472     27.88%     27.88% |    78959380     24.04%     51.93% |    80271696     24.44%     76.37% |    77605881     23.63%    100.00%
system.ruby.L1Cache_Controller.MloadMEvent::total    328415429                      
system.ruby.L1Cache_Controller.MstoreMEvent |    70381480     28.94%     28.94% |    57538677     23.66%     52.60% |    57951992     23.83%     76.43% |    57328601     23.57%    100.00%
system.ruby.L1Cache_Controller.MstoreMEvent::total    243200750                      
system.ruby.L1Cache_Controller.Progress  |      528006     33.10%     33.10% |      357234     22.40%     55.50% |      360328     22.59%     78.09% |      349541     21.91%    100.00%
system.ruby.L1Cache_Controller.Progress::total      1595109                      
system.ruby.L1Cache_Controller.S.SloadSEvent |  1555409547     27.34%     27.34% |  1370793802     24.09%     51.43% |  1370700363     24.09%     75.52% |  1393067929     24.48%    100.00%
system.ruby.L1Cache_Controller.S.SloadSEvent::total   5689971641                      
system.ruby.L1Cache_Controller.S.allocTBE |     5076924     28.61%     28.61% |     4295995     24.21%     52.82% |     4333625     24.42%     77.25% |     4037593     22.75%    100.00%
system.ruby.L1Cache_Controller.S.allocTBE::total     17744137                      
system.ruby.L1Cache_Controller.S.deallocTBE |        7330     46.44%     46.44% |        3129     19.82%     66.26% |        2748     17.41%     83.67% |        2578     16.33%    100.00%
system.ruby.L1Cache_Controller.S.deallocTBE::total        15785                      
system.ruby.L1Cache_Controller.S.externalloadSnet0from_in |     5065490     28.59%     28.59% |     4290766     24.22%     52.81% |     4328909     24.44%     77.25% |     4030373     22.75%    100.00%
system.ruby.L1Cache_Controller.S.externalloadSnet0from_in::total     17715538                      
system.ruby.L1Cache_Controller.S.externalloadSrespfrom_in |        4670     29.27%     29.27% |        2977     18.66%     47.93% |        2814     17.64%     65.57% |        5494     34.43%    100.00%
system.ruby.L1Cache_Controller.S.externalloadSrespfrom_in::total        15955                      
system.ruby.L1Cache_Controller.S_evict.Progress |           0      0.00%      0.00% |           0      0.00%      0.00% |           3    100.00%    100.00% |           0      0.00%    100.00%
system.ruby.L1Cache_Controller.S_evict.Progress::total            3                      
system.ruby.L1Cache_Controller.S_evict.Stallmandatory_in |         492     20.88%     20.88% |         532     22.58%     43.46% |         856     36.33%     79.80% |         476     20.20%    100.00%
system.ruby.L1Cache_Controller.S_evict.Stallmandatory_in::total         2356                      
system.ruby.L1Cache_Controller.S_store.Progress |      497305     31.93%     31.93% |      354657     22.77%     54.71% |      357727     22.97%     77.68% |      347579     22.32%    100.00%
system.ruby.L1Cache_Controller.S_store.Progress::total      1557268                      
system.ruby.L1Cache_Controller.S_store.Stallnet0from_in |           6     20.00%     20.00% |           6     20.00%     40.00% |           8     26.67%     66.67% |          10     33.33%    100.00%
system.ruby.L1Cache_Controller.S_store.Stallnet0from_in::total           30                      
system.ruby.L1Cache_Controller.S_store_GetM_Ack_AD.Progress |       19014     74.58%     74.58% |        2373      9.31%     83.89% |        2286      8.97%     92.86% |        1821      7.14%    100.00%
system.ruby.L1Cache_Controller.S_store_GetM_Ack_AD.Progress::total        25494                      
system.ruby.L1Cache_Controller.S_store_GetM_Ack_AD.Stallnet0from_in |         211     43.24%     43.24% |         140     28.69%     71.93% |          92     18.85%     90.78% |          45      9.22%    100.00%
system.ruby.L1Cache_Controller.S_store_GetM_Ack_AD.Stallnet0from_in::total          488                      
system.ruby.L1Cache_Controller.SloadSEvent |  1555409547     27.34%     27.34% |  1370793802     24.09%     51.43% |  1370700363     24.09%     75.52% |  1393067929     24.48%    100.00%
system.ruby.L1Cache_Controller.SloadSEvent::total   5689971641                      
system.ruby.L1Cache_Controller.Stallmandatory_in |        1215     19.50%     19.50% |        1587     25.47%     44.97% |        2114     33.93%     78.90% |        1315     21.10%    100.00%
system.ruby.L1Cache_Controller.Stallmandatory_in::total         6231                      
system.ruby.L1Cache_Controller.Stallnet0from_in |         223     40.77%     40.77% |         152     27.79%     68.56% |         109     19.93%     88.48% |          63     11.52%    100.00%
system.ruby.L1Cache_Controller.Stallnet0from_in::total          547                      
system.ruby.L1Cache_Controller.allocI_load |     5070160     28.59%     28.59% |     4293743     24.22%     52.81% |     4331723     24.43%     77.24% |     4035867     22.76%    100.00%
system.ruby.L1Cache_Controller.allocI_load::total     17731493                      
system.ruby.L1Cache_Controller.allocI_store |     2094978     34.11%     34.11% |     1350798     22.00%     56.11% |     1372781     22.35%     78.46% |     1322681     21.54%    100.00%
system.ruby.L1Cache_Controller.allocI_store::total      6141238                      
system.ruby.L1Cache_Controller.allocTBE  |     7668749     30.14%     30.14% |     6001339     23.59%     53.73% |     6063970     23.83%     77.57% |     5707736     22.43%    100.00%
system.ruby.L1Cache_Controller.allocTBE::total     25441794                      
system.ruby.L1Cache_Controller.deallocTBE |        7330     46.44%     46.44% |        3129     19.82%     66.26% |        2748     17.41%     83.67% |        2578     16.33%    100.00%
system.ruby.L1Cache_Controller.deallocTBE::total        15785                      
system.ruby.L1Cache_Controller.deallocnet0from_in |     2584495     33.64%     33.64% |     1702215     22.16%     55.80% |     1727594     22.49%     78.29% |     1667565     21.71%    100.00%
system.ruby.L1Cache_Controller.deallocnet0from_in::total      7681869                      
system.ruby.L1Cache_Controller.deallocnet1from_in |           1     14.29%     14.29% |           2     28.57%     42.86% |           2     28.57%     71.43% |           2     28.57%    100.00%
system.ruby.L1Cache_Controller.deallocnet1from_in::total            7                      
system.ruby.L1Cache_Controller.deallocnet2from_in |     4579618     28.29%     28.29% |     3941336     24.35%     52.64% |     3975901     24.56%     77.20% |     3690012     22.80%    100.00%
system.ruby.L1Cache_Controller.deallocnet2from_in::total     16186867                      
system.ruby.L1Cache_Controller.externalloadSnet0from_in |     5065490     28.59%     28.59% |     4290766     24.22%     52.81% |     4328909     24.44%     77.25% |     4030373     22.75%    100.00%
system.ruby.L1Cache_Controller.externalloadSnet0from_in::total     17715538                      
system.ruby.L1Cache_Controller.externalloadSrespfrom_in |        4670     29.27%     29.27% |        2977     18.66%     47.93% |        2814     17.64%     65.57% |        5494     34.43%    100.00%
system.ruby.L1Cache_Controller.externalloadSrespfrom_in::total        15955                      
system.ruby.L1Cache_Controller.externalstoreMnet1from_in |     2575112     33.57%     33.57% |     1701683     22.18%     55.75% |     1727219     22.51%     78.26% |     1667619     21.74%    100.00%
system.ruby.L1Cache_Controller.externalstoreMnet1from_in::total      7671633                      
system.ruby.L1Cache_Controller.externalstoreMrespfrom_in |       17171     63.90%     63.90% |        3772     14.04%     77.94% |        3287     12.23%     90.17% |        2641      9.83%    100.00%
system.ruby.L1Cache_Controller.externalstoreMrespfrom_in::total        26871                      
system.ruby.LD.hit_latency_hist_seqr::bucket_size            1                      
system.ruby.LD.hit_latency_hist_seqr::max_bucket            9                      
system.ruby.LD.hit_latency_hist_seqr::samples    762902171                      
system.ruby.LD.hit_latency_hist_seqr     |   762902171    100.00%    100.00% |           0      0.00%    100.00% |           0      0.00%    100.00% |           0      0.00%    100.00% |           0      0.00%    100.00% |           0      0.00%    100.00% |           0      0.00%    100.00% |           0      0.00%    100.00% |           0      0.00%    100.00% |           0      0.00%    100.00%
system.ruby.LD.hit_latency_hist_seqr::total    762902171                      
system.ruby.LD.latency_hist_seqr::bucket_size            1                      
system.ruby.LD.latency_hist_seqr::max_bucket            9                      
system.ruby.LD.latency_hist_seqr::samples    777242859                      
system.ruby.LD.latency_hist_seqr         |   777242859    100.00%    100.00% |           0      0.00%    100.00% |           0      0.00%    100.00% |           0      0.00%    100.00% |           0      0.00%    100.00% |           0      0.00%    100.00% |           0      0.00%    100.00% |           0      0.00%    100.00% |           0      0.00%    100.00% |           0      0.00%    100.00%
system.ruby.LD.latency_hist_seqr::total     777242859                      
system.ruby.LD.miss_latency_hist_seqr::bucket_size            1                      
system.ruby.LD.miss_latency_hist_seqr::max_bucket            9                      
system.ruby.LD.miss_latency_hist_seqr::samples     14340688                      
system.ruby.LD.miss_latency_hist_seqr    |    14340688    100.00%    100.00% |           0      0.00%    100.00% |           0      0.00%    100.00% |           0      0.00%    100.00% |           0      0.00%    100.00% |           0      0.00%    100.00% |           0      0.00%    100.00% |           0      0.00%    100.00% |           0      0.00%    100.00% |           0      0.00%    100.00%
system.ruby.LD.miss_latency_hist_seqr::total     14340688                      
system.ruby.Locked_RMW_Read.hit_latency_hist_seqr::bucket_size            1                      
system.ruby.Locked_RMW_Read.hit_latency_hist_seqr::max_bucket            9                      
system.ruby.Locked_RMW_Read.hit_latency_hist_seqr::samples       211401                      
system.ruby.Locked_RMW_Read.hit_latency_hist_seqr |      211401    100.00%    100.00% |           0      0.00%    100.00% |           0      0.00%    100.00% |           0      0.00%    100.00% |           0      0.00%    100.00% |           0      0.00%    100.00% |           0      0.00%    100.00% |           0      0.00%    100.00% |           0      0.00%    100.00% |           0      0.00%    100.00%
system.ruby.Locked_RMW_Read.hit_latency_hist_seqr::total       211401                      
system.ruby.Locked_RMW_Read.latency_hist_seqr::bucket_size            1                      
system.ruby.Locked_RMW_Read.latency_hist_seqr::max_bucket            9                      
system.ruby.Locked_RMW_Read.latency_hist_seqr::samples       279968                      
system.ruby.Locked_RMW_Read.latency_hist_seqr |      279968    100.00%    100.00% |           0      0.00%    100.00% |           0      0.00%    100.00% |           0      0.00%    100.00% |           0      0.00%    100.00% |           0      0.00%    100.00% |           0      0.00%    100.00% |           0      0.00%    100.00% |           0      0.00%    100.00% |           0      0.00%    100.00%
system.ruby.Locked_RMW_Read.latency_hist_seqr::total       279968                      
system.ruby.Locked_RMW_Read.miss_latency_hist_seqr::bucket_size            1                      
system.ruby.Locked_RMW_Read.miss_latency_hist_seqr::max_bucket            9                      
system.ruby.Locked_RMW_Read.miss_latency_hist_seqr::samples        68567                      
system.ruby.Locked_RMW_Read.miss_latency_hist_seqr |       68567    100.00%    100.00% |           0      0.00%    100.00% |           0      0.00%    100.00% |           0      0.00%    100.00% |           0      0.00%    100.00% |           0      0.00%    100.00% |           0      0.00%    100.00% |           0      0.00%    100.00% |           0      0.00%    100.00% |           0      0.00%    100.00%
system.ruby.Locked_RMW_Read.miss_latency_hist_seqr::total        68567                      
system.ruby.Locked_RMW_Write.hit_latency_hist_seqr::bucket_size            1                      
system.ruby.Locked_RMW_Write.hit_latency_hist_seqr::max_bucket            9                      
system.ruby.Locked_RMW_Write.hit_latency_hist_seqr::samples       279968                      
system.ruby.Locked_RMW_Write.hit_latency_hist_seqr |      279968    100.00%    100.00% |           0      0.00%    100.00% |           0      0.00%    100.00% |           0      0.00%    100.00% |           0      0.00%    100.00% |           0      0.00%    100.00% |           0      0.00%    100.00% |           0      0.00%    100.00% |           0      0.00%    100.00% |           0      0.00%    100.00%
system.ruby.Locked_RMW_Write.hit_latency_hist_seqr::total       279968                      
system.ruby.Locked_RMW_Write.latency_hist_seqr::bucket_size            1                      
system.ruby.Locked_RMW_Write.latency_hist_seqr::max_bucket            9                      
system.ruby.Locked_RMW_Write.latency_hist_seqr::samples       279968                      
system.ruby.Locked_RMW_Write.latency_hist_seqr |      279968    100.00%    100.00% |           0      0.00%    100.00% |           0      0.00%    100.00% |           0      0.00%    100.00% |           0      0.00%    100.00% |           0      0.00%    100.00% |           0      0.00%    100.00% |           0      0.00%    100.00% |           0      0.00%    100.00% |           0      0.00%    100.00%
system.ruby.Locked_RMW_Write.latency_hist_seqr::total       279968                      
system.ruby.RMW_Read.hit_latency_hist_seqr::bucket_size            1                      
system.ruby.RMW_Read.hit_latency_hist_seqr::max_bucket            9                      
system.ruby.RMW_Read.hit_latency_hist_seqr::samples      8283894                      
system.ruby.RMW_Read.hit_latency_hist_seqr |     8283894    100.00%    100.00% |           0      0.00%    100.00% |           0      0.00%    100.00% |           0      0.00%    100.00% |           0      0.00%    100.00% |           0      0.00%    100.00% |           0      0.00%    100.00% |           0      0.00%    100.00% |           0      0.00%    100.00% |           0      0.00%    100.00%
system.ruby.RMW_Read.hit_latency_hist_seqr::total      8283894                      
system.ruby.RMW_Read.latency_hist_seqr::bucket_size            1                      
system.ruby.RMW_Read.latency_hist_seqr::max_bucket            9                      
system.ruby.RMW_Read.latency_hist_seqr::samples      8415632                      
system.ruby.RMW_Read.latency_hist_seqr   |     8415632    100.00%    100.00% |           0      0.00%    100.00% |           0      0.00%    100.00% |           0      0.00%    100.00% |           0      0.00%    100.00% |           0      0.00%    100.00% |           0      0.00%    100.00% |           0      0.00%    100.00% |           0      0.00%    100.00% |           0      0.00%    100.00%
system.ruby.RMW_Read.latency_hist_seqr::total      8415632                      
system.ruby.RMW_Read.miss_latency_hist_seqr::bucket_size            1                      
system.ruby.RMW_Read.miss_latency_hist_seqr::max_bucket            9                      
system.ruby.RMW_Read.miss_latency_hist_seqr::samples       131738                      
system.ruby.RMW_Read.miss_latency_hist_seqr |      131738    100.00%    100.00% |           0      0.00%    100.00% |           0      0.00%    100.00% |           0      0.00%    100.00% |           0      0.00%    100.00% |           0      0.00%    100.00% |           0      0.00%    100.00% |           0      0.00%    100.00% |           0      0.00%    100.00% |           0      0.00%    100.00%
system.ruby.RMW_Read.miss_latency_hist_seqr::total       131738                      
system.ruby.ST.hit_latency_hist_seqr::bucket_size            1                      
system.ruby.ST.hit_latency_hist_seqr::max_bucket            9                      
system.ruby.ST.hit_latency_hist_seqr::samples    234425487                      
system.ruby.ST.hit_latency_hist_seqr     |   234425487    100.00%    100.00% |           0      0.00%    100.00% |           0      0.00%    100.00% |           0      0.00%    100.00% |           0      0.00%    100.00% |           0      0.00%    100.00% |           0      0.00%    100.00% |           0      0.00%    100.00% |           0      0.00%    100.00% |           0      0.00%    100.00%
system.ruby.ST.hit_latency_hist_seqr::total    234425487                      
system.ruby.ST.latency_hist_seqr::bucket_size            1                      
system.ruby.ST.latency_hist_seqr::max_bucket            9                      
system.ruby.ST.latency_hist_seqr::samples    241923686                      
system.ruby.ST.latency_hist_seqr         |   241923686    100.00%    100.00% |           0      0.00%    100.00% |           0      0.00%    100.00% |           0      0.00%    100.00% |           0      0.00%    100.00% |           0      0.00%    100.00% |           0      0.00%    100.00% |           0      0.00%    100.00% |           0      0.00%    100.00% |           0      0.00%    100.00%
system.ruby.ST.latency_hist_seqr::total     241923686                      
system.ruby.ST.miss_latency_hist_seqr::bucket_size            1                      
system.ruby.ST.miss_latency_hist_seqr::max_bucket            9                      
system.ruby.ST.miss_latency_hist_seqr::samples      7498199                      
system.ruby.ST.miss_latency_hist_seqr    |     7498199    100.00%    100.00% |           0      0.00%    100.00% |           0      0.00%    100.00% |           0      0.00%    100.00% |           0      0.00%    100.00% |           0      0.00%    100.00% |           0      0.00%    100.00% |           0      0.00%    100.00% |           0      0.00%    100.00% |           0      0.00%    100.00%
system.ruby.ST.miss_latency_hist_seqr::total      7498199                      
system.ruby.dir_cntrl0.net0From.avg_buf_msgs     0.008987                       # Average number of messages in buffer
system.ruby.dir_cntrl0.net0From.avg_stall_time  3000.340300                       # Average number of cycles messages are stalled in this MB
system.ruby.dir_cntrl0.net1From.avg_buf_msgs     0.002702                       # Average number of messages in buffer
system.ruby.dir_cntrl0.net1From.avg_stall_time  3003.145826                       # Average number of cycles messages are stalled in this MB
system.ruby.dir_cntrl0.net2From.avg_buf_msgs     0.005755                       # Average number of messages in buffer
system.ruby.dir_cntrl0.net2From.avg_stall_time  2999.934460                       # Average number of cycles messages are stalled in this MB
system.ruby.dir_cntrl0.reqTo.avg_buf_msgs     0.002903                       # Average number of messages in buffer
system.ruby.dir_cntrl0.reqTo.avg_stall_time  4866.586106                       # Average number of cycles messages are stalled in this MB
system.ruby.dir_cntrl0.requestToMemory.avg_buf_msgs     0.001942                       # Average number of messages in buffer
system.ruby.dir_cntrl0.requestToMemory.avg_stall_time   499.999805                       # Average number of cycles messages are stalled in this MB
system.ruby.dir_cntrl0.respTo.avg_buf_msgs     0.000001                       # Average number of messages in buffer
system.ruby.dir_cntrl0.respTo.avg_stall_time 13697.537104                       # Average number of cycles messages are stalled in this MB
system.ruby.dir_cntrl0.responseFromMemory.avg_buf_msgs     0.001945                       # Average number of messages in buffer
system.ruby.dir_cntrl0.responseFromMemory.avg_stall_time   499.999786                       # Average number of cycles messages are stalled in this MB
system.ruby.dir_cntrl1.net0From.avg_buf_msgs     0.008825                       # Average number of messages in buffer
system.ruby.dir_cntrl1.net0From.avg_stall_time  3000.365823                       # Average number of cycles messages are stalled in this MB
system.ruby.dir_cntrl1.net1From.avg_buf_msgs     0.002693                       # Average number of messages in buffer
system.ruby.dir_cntrl1.net1From.avg_stall_time  3003.256457                       # Average number of cycles messages are stalled in this MB
system.ruby.dir_cntrl1.net2From.avg_buf_msgs     0.005621                       # Average number of messages in buffer
system.ruby.dir_cntrl1.net2From.avg_stall_time  2999.981206                       # Average number of cycles messages are stalled in this MB
system.ruby.dir_cntrl1.reqTo.avg_buf_msgs     0.002853                       # Average number of messages in buffer
system.ruby.dir_cntrl1.reqTo.avg_stall_time  5050.778617                       # Average number of cycles messages are stalled in this MB
system.ruby.dir_cntrl1.requestToMemory.avg_buf_msgs     0.001913                       # Average number of messages in buffer
system.ruby.dir_cntrl1.requestToMemory.avg_stall_time   499.999901                       # Average number of cycles messages are stalled in this MB
system.ruby.dir_cntrl1.respTo.avg_buf_msgs     0.000001                       # Average number of messages in buffer
system.ruby.dir_cntrl1.respTo.avg_stall_time 14511.559839                       # Average number of cycles messages are stalled in this MB
system.ruby.dir_cntrl1.responseFromMemory.avg_buf_msgs     0.001916                       # Average number of messages in buffer
system.ruby.dir_cntrl1.responseFromMemory.avg_stall_time   499.999881                       # Average number of cycles messages are stalled in this MB
system.ruby.dir_cntrl2.net0From.avg_buf_msgs     0.008818                       # Average number of messages in buffer
system.ruby.dir_cntrl2.net0From.avg_stall_time  3000.590364                       # Average number of cycles messages are stalled in this MB
system.ruby.dir_cntrl2.net1From.avg_buf_msgs     0.002772                       # Average number of messages in buffer
system.ruby.dir_cntrl2.net1From.avg_stall_time  3007.795616                       # Average number of cycles messages are stalled in this MB
system.ruby.dir_cntrl2.net2From.avg_buf_msgs     0.005566                       # Average number of messages in buffer
system.ruby.dir_cntrl2.net2From.avg_stall_time  2999.975748                       # Average number of cycles messages are stalled in this MB
system.ruby.dir_cntrl2.reqTo.avg_buf_msgs     0.002843                       # Average number of messages in buffer
system.ruby.dir_cntrl2.reqTo.avg_stall_time  5033.478955                       # Average number of cycles messages are stalled in this MB
system.ruby.dir_cntrl2.requestToMemory.avg_buf_msgs     0.001914                       # Average number of messages in buffer
system.ruby.dir_cntrl2.requestToMemory.avg_stall_time   499.999999                       # Average number of cycles messages are stalled in this MB
system.ruby.dir_cntrl2.respTo.avg_buf_msgs     0.000001                       # Average number of messages in buffer
system.ruby.dir_cntrl2.respTo.avg_stall_time 14598.744450                       # Average number of cycles messages are stalled in this MB
system.ruby.dir_cntrl2.responseFromMemory.avg_buf_msgs     0.001917                       # Average number of messages in buffer
system.ruby.dir_cntrl2.responseFromMemory.avg_stall_time   499.999979                       # Average number of cycles messages are stalled in this MB
system.ruby.dir_cntrl3.net0From.avg_buf_msgs     0.008684                       # Average number of messages in buffer
system.ruby.dir_cntrl3.net0From.avg_stall_time  3000.756644                       # Average number of cycles messages are stalled in this MB
system.ruby.dir_cntrl3.net1From.avg_buf_msgs     0.002779                       # Average number of messages in buffer
system.ruby.dir_cntrl3.net1From.avg_stall_time  3010.313654                       # Average number of cycles messages are stalled in this MB
system.ruby.dir_cntrl3.net2From.avg_buf_msgs     0.005463                       # Average number of messages in buffer
system.ruby.dir_cntrl3.net2From.avg_stall_time  2999.937014                       # Average number of cycles messages are stalled in this MB
system.ruby.dir_cntrl3.reqTo.avg_buf_msgs     0.002802                       # Average number of messages in buffer
system.ruby.dir_cntrl3.reqTo.avg_stall_time  5162.581678                       # Average number of cycles messages are stalled in this MB
system.ruby.dir_cntrl3.requestToMemory.avg_buf_msgs     0.001891                       # Average number of messages in buffer
system.ruby.dir_cntrl3.requestToMemory.avg_stall_time   499.999855                       # Average number of cycles messages are stalled in this MB
system.ruby.dir_cntrl3.respTo.avg_buf_msgs     0.000001                       # Average number of messages in buffer
system.ruby.dir_cntrl3.respTo.avg_stall_time 15097.002453                       # Average number of cycles messages are stalled in this MB
system.ruby.dir_cntrl3.responseFromMemory.avg_buf_msgs     0.001893                       # Average number of messages in buffer
system.ruby.dir_cntrl3.responseFromMemory.avg_stall_time   499.999835                       # Average number of cycles messages are stalled in this MB
system.ruby.dma_cntrl0.cache.demand_accesses            0                       # Number of cache demand accesses
system.ruby.dma_cntrl0.cache.demand_hits            0                       # Number of cache demand hits
system.ruby.dma_cntrl0.cache.demand_misses            0                       # Number of cache demand misses
system.ruby.dma_cntrl0.fully_busy_cycles       109660                       # cycles for which number of transistions == max transitions
system.ruby.dma_cntrl0.mandatoryQueue.avg_buf_msgs     0.001656                       # Average number of messages in buffer
system.ruby.dma_cntrl0.mandatoryQueue.avg_stall_time 42784.473609                       # Average number of cycles messages are stalled in this MB
system.ruby.dma_cntrl0.net0From.avg_buf_msgs     0.000010                       # Average number of messages in buffer
system.ruby.dma_cntrl0.net0From.avg_stall_time  5925.442820                       # Average number of cycles messages are stalled in this MB
system.ruby.dma_cntrl0.net1From.avg_buf_msgs     0.000009                       # Average number of messages in buffer
system.ruby.dma_cntrl0.net1From.avg_stall_time 121289.441616                       # Average number of cycles messages are stalled in this MB
system.ruby.dma_cntrl0.net2From.avg_buf_msgs     0.000001                       # Average number of messages in buffer
system.ruby.dma_cntrl0.net2From.avg_stall_time  6382.719892                       # Average number of cycles messages are stalled in this MB
system.ruby.dma_cntrl0.reqTo.avg_buf_msgs     0.002617                       # Average number of messages in buffer
system.ruby.dma_cntrl0.reqTo.avg_stall_time  2300.818511                       # Average number of cycles messages are stalled in this MB
system.ruby.dma_cntrl0.respFrom.avg_buf_msgs     0.000000                       # Average number of messages in buffer
system.ruby.dma_cntrl0.respFrom.avg_stall_time 14750.690272                       # Average number of cycles messages are stalled in this MB
system.ruby.dma_cntrl0.respTo.avg_buf_msgs     0.000000                       # Average number of messages in buffer
system.ruby.dma_cntrl0.respTo.avg_stall_time   935.002342                       # Average number of cycles messages are stalled in this MB
system.ruby.hit_latency_hist_seqr::bucket_size            1                      
system.ruby.hit_latency_hist_seqr::max_bucket            9                      
system.ruby.hit_latency_hist_seqr::samples   6261587820                      
system.ruby.hit_latency_hist_seqr        |  6261587820    100.00%    100.00% |           0      0.00%    100.00% |           0      0.00%    100.00% |           0      0.00%    100.00% |           0      0.00%    100.00% |           0      0.00%    100.00% |           0      0.00%    100.00% |           0      0.00%    100.00% |           0      0.00%    100.00% |           0      0.00%    100.00%
system.ruby.hit_latency_hist_seqr::total   6261587820                      
system.ruby.io_controller.cache.demand_accesses            0                       # Number of cache demand accesses
system.ruby.io_controller.cache.demand_hits            0                       # Number of cache demand hits
system.ruby.io_controller.cache.demand_misses            0                       # Number of cache demand misses
system.ruby.l1_cntrl0.cache.demand_accesses            0                       # Number of cache demand accesses
system.ruby.l1_cntrl0.cache.demand_hits             0                       # Number of cache demand hits
system.ruby.l1_cntrl0.cache.demand_misses            0                       # Number of cache demand misses
system.ruby.l1_cntrl0.fully_busy_cycles             4                       # cycles for which number of transistions == max transitions
system.ruby.l1_cntrl0.mandatoryQueue.avg_buf_msgs     0.445891                       # Average number of messages in buffer
system.ruby.l1_cntrl0.mandatoryQueue.avg_stall_time  2590.903318                       # Average number of cycles messages are stalled in this MB
system.ruby.l1_cntrl0.net0From.avg_buf_msgs     2.568083                       # Average number of messages in buffer
system.ruby.l1_cntrl0.net0From.avg_stall_time 13931.151604                       # Average number of cycles messages are stalled in this MB
system.ruby.l1_cntrl0.net1From.avg_buf_msgs     0.000598                       # Average number of messages in buffer
system.ruby.l1_cntrl0.net1From.avg_stall_time 16506.542899                       # Average number of cycles messages are stalled in this MB
system.ruby.l1_cntrl0.net2From.avg_buf_msgs     0.001057                       # Average number of messages in buffer
system.ruby.l1_cntrl0.net2From.avg_stall_time  6494.408458                       # Average number of cycles messages are stalled in this MB
system.ruby.l1_cntrl0.reqTo.avg_buf_msgs     0.003422                       # Average number of messages in buffer
system.ruby.l1_cntrl0.reqTo.avg_stall_time   500.000423                       # Average number of cycles messages are stalled in this MB
system.ruby.l1_cntrl0.respFrom.avg_buf_msgs     0.000008                       # Average number of messages in buffer
system.ruby.l1_cntrl0.respFrom.avg_stall_time 14458.813318                       # Average number of cycles messages are stalled in this MB
system.ruby.l1_cntrl0.respTo.avg_buf_msgs     0.000006                       # Average number of messages in buffer
system.ruby.l1_cntrl0.respTo.avg_stall_time   880.100733                       # Average number of cycles messages are stalled in this MB
system.ruby.l1_cntrl1.cache.demand_accesses            0                       # Number of cache demand accesses
system.ruby.l1_cntrl1.cache.demand_hits             0                       # Number of cache demand hits
system.ruby.l1_cntrl1.cache.demand_misses            0                       # Number of cache demand misses
system.ruby.l1_cntrl1.fully_busy_cycles             6                       # cycles for which number of transistions == max transitions
system.ruby.l1_cntrl1.mandatoryQueue.avg_buf_msgs     0.384793                       # Average number of messages in buffer
system.ruby.l1_cntrl1.mandatoryQueue.avg_stall_time  2091.053264                       # Average number of cycles messages are stalled in this MB
system.ruby.l1_cntrl1.net0From.avg_buf_msgs     3.375638                       # Average number of messages in buffer
system.ruby.l1_cntrl1.net0From.avg_stall_time 14322.159964                       # Average number of cycles messages are stalled in this MB
system.ruby.l1_cntrl1.net1From.avg_buf_msgs     0.000393                       # Average number of messages in buffer
system.ruby.l1_cntrl1.net1From.avg_stall_time 16520.604565                       # Average number of cycles messages are stalled in this MB
system.ruby.l1_cntrl1.net2From.avg_buf_msgs     0.000910                       # Average number of messages in buffer
system.ruby.l1_cntrl1.net2From.avg_stall_time  6664.100179                       # Average number of cycles messages are stalled in this MB
system.ruby.l1_cntrl1.reqTo.avg_buf_msgs     0.002685                       # Average number of messages in buffer
system.ruby.l1_cntrl1.reqTo.avg_stall_time   499.990356                       # Average number of cycles messages are stalled in this MB
system.ruby.l1_cntrl1.respFrom.avg_buf_msgs     0.000002                       # Average number of messages in buffer
system.ruby.l1_cntrl1.respFrom.avg_stall_time 14275.171771                       # Average number of cycles messages are stalled in this MB
system.ruby.l1_cntrl1.respTo.avg_buf_msgs     0.000008                       # Average number of messages in buffer
system.ruby.l1_cntrl1.respTo.avg_stall_time   527.315386                       # Average number of cycles messages are stalled in this MB
system.ruby.l1_cntrl2.cache.demand_accesses            0                       # Number of cache demand accesses
system.ruby.l1_cntrl2.cache.demand_hits             0                       # Number of cache demand hits
system.ruby.l1_cntrl2.cache.demand_misses            0                       # Number of cache demand misses
system.ruby.l1_cntrl2.fully_busy_cycles             2                       # cycles for which number of transistions == max transitions
system.ruby.l1_cntrl2.mandatoryQueue.avg_buf_msgs     0.385601                       # Average number of messages in buffer
system.ruby.l1_cntrl2.mandatoryQueue.avg_stall_time  2111.684155                       # Average number of cycles messages are stalled in this MB
system.ruby.l1_cntrl2.net0From.avg_buf_msgs     4.176217                       # Average number of messages in buffer
system.ruby.l1_cntrl2.net0From.avg_stall_time 14166.179105                       # Average number of cycles messages are stalled in this MB
system.ruby.l1_cntrl2.net1From.avg_buf_msgs     0.000399                       # Average number of messages in buffer
system.ruby.l1_cntrl2.net1From.avg_stall_time 16668.974202                       # Average number of cycles messages are stalled in this MB
system.ruby.l1_cntrl2.net2From.avg_buf_msgs     0.000918                       # Average number of messages in buffer
system.ruby.l1_cntrl2.net2From.avg_stall_time  6505.652971                       # Average number of cycles messages are stalled in this MB
system.ruby.l1_cntrl2.reqTo.avg_buf_msgs     0.002713                       # Average number of messages in buffer
system.ruby.l1_cntrl2.reqTo.avg_stall_time   499.950962                       # Average number of cycles messages are stalled in this MB
system.ruby.l1_cntrl2.respFrom.avg_buf_msgs     0.000001                       # Average number of messages in buffer
system.ruby.l1_cntrl2.respFrom.avg_stall_time 14159.447189                       # Average number of cycles messages are stalled in this MB
system.ruby.l1_cntrl2.respTo.avg_buf_msgs     0.000005                       # Average number of messages in buffer
system.ruby.l1_cntrl2.respTo.avg_stall_time   522.425456                       # Average number of cycles messages are stalled in this MB
system.ruby.l1_cntrl3.cache.demand_accesses            0                       # Number of cache demand accesses
system.ruby.l1_cntrl3.cache.demand_hits             0                       # Number of cache demand hits
system.ruby.l1_cntrl3.cache.demand_misses            0                       # Number of cache demand misses
system.ruby.l1_cntrl3.fully_busy_cycles             1                       # cycles for which number of transistions == max transitions
system.ruby.l1_cntrl3.mandatoryQueue.avg_buf_msgs     0.387999                       # Average number of messages in buffer
system.ruby.l1_cntrl3.mandatoryQueue.avg_stall_time  2008.640406                       # Average number of cycles messages are stalled in this MB
system.ruby.l1_cntrl3.net0From.avg_buf_msgs     2.568967                       # Average number of messages in buffer
system.ruby.l1_cntrl3.net0From.avg_stall_time 14150.412985                       # Average number of cycles messages are stalled in this MB
system.ruby.l1_cntrl3.net1From.avg_buf_msgs     0.000385                       # Average number of messages in buffer
system.ruby.l1_cntrl3.net1From.avg_stall_time 16489.055983                       # Average number of cycles messages are stalled in this MB
system.ruby.l1_cntrl3.net2From.avg_buf_msgs     0.000852                       # Average number of messages in buffer
system.ruby.l1_cntrl3.net2From.avg_stall_time  6672.622712                       # Average number of cycles messages are stalled in this MB
system.ruby.l1_cntrl3.reqTo.avg_buf_msgs     0.002552                       # Average number of messages in buffer
system.ruby.l1_cntrl3.reqTo.avg_stall_time   499.803381                       # Average number of cycles messages are stalled in this MB
system.ruby.l1_cntrl3.respFrom.avg_buf_msgs     0.000002                       # Average number of messages in buffer
system.ruby.l1_cntrl3.respFrom.avg_stall_time 14863.642235                       # Average number of cycles messages are stalled in this MB
system.ruby.l1_cntrl3.respTo.avg_buf_msgs     0.000004                       # Average number of messages in buffer
system.ruby.l1_cntrl3.respTo.avg_stall_time   537.705823                       # Average number of cycles messages are stalled in this MB
system.ruby.latency_hist_seqr::bucket_size            1                      
system.ruby.latency_hist_seqr::max_bucket            9                      
system.ruby.latency_hist_seqr::samples     6287017817                      
system.ruby.latency_hist_seqr            |  6287017817    100.00%    100.00% |           0      0.00%    100.00% |           0      0.00%    100.00% |           0      0.00%    100.00% |           0      0.00%    100.00% |           0      0.00%    100.00% |           0      0.00%    100.00% |           0      0.00%    100.00% |           0      0.00%    100.00% |           0      0.00%    100.00%
system.ruby.latency_hist_seqr::total       6287017817                      
system.ruby.miss_latency_hist_seqr::bucket_size            1                      
system.ruby.miss_latency_hist_seqr::max_bucket            9                      
system.ruby.miss_latency_hist_seqr::samples     25429997                      
system.ruby.miss_latency_hist_seqr       |    25429997    100.00%    100.00% |           0      0.00%    100.00% |           0      0.00%    100.00% |           0      0.00%    100.00% |           0      0.00%    100.00% |           0      0.00%    100.00% |           0      0.00%    100.00% |           0      0.00%    100.00% |           0      0.00%    100.00% |           0      0.00%    100.00%
system.ruby.miss_latency_hist_seqr::total     25429997                      
system.ruby.network.average_flit_latency    16.637495                      
system.ruby.network.average_flit_network_latency    12.213045                      
system.ruby.network.average_flit_queueing_latency     4.424450                      
system.ruby.network.average_flit_vnet_latency |   14.211515                       |   15.200448                       |    5.001082                       |   15.538281                       |    9.812970                      
system.ruby.network.average_flit_vqueue_latency |    6.012062                       |    6.131444                       |    6.000000                       |    1.355044                       |    1.390839                      
system.ruby.network.average_hops             0.999437                      
system.ruby.network.average_packet_latency    15.377228                      
system.ruby.network.average_packet_network_latency    11.751347                      
system.ruby.network.average_packet_queueing_latency     3.625881                      
system.ruby.network.average_packet_vnet_latency |   18.938208                       |   25.207949                       |    5.001082                       |   25.572640                       |    8.128719                      
system.ruby.network.average_packet_vqueue_latency |    6.009221                       |    6.131444                       |    6.000000                       |    1.355044                       |    1.227997                      
system.ruby.network.avg_link_utilization     0.160477                      
system.ruby.network.avg_vc_load          |    0.049913     31.10%     31.10% |    0.005642      3.52%     34.62% |    0.005563      3.47%     38.09% |    0.005563      3.47%     41.55% |    0.020014     12.47%     54.02% |    0.002266      1.41%     55.44% |    0.002250      1.40%     56.84% |    0.002248      1.40%     58.24% |    0.008401      5.24%     63.47% |    0.000937      0.58%     64.06% |    0.000935      0.58%     64.64% |    0.000934      0.58%     65.22% |    0.000178      0.11%     65.33% |    0.000049      0.03%     65.36% |    0.000027      0.02%     65.38% |    0.000021      0.01%     65.39% |    0.041332     25.76%     91.15% |    0.004939      3.08%     94.23% |    0.004638      2.89%     97.12% |    0.004626      2.88%    100.00%
system.ruby.network.avg_vc_load::total       0.160477                      
system.ruby.network.ext_in_link_utilization    231768476                      
system.ruby.network.ext_out_link_utilization    231768476                      
system.ruby.network.flit_network_latency |  1369059299                       |   587742768                       |    80969917                       |     5763770                       |   787063014                      
system.ruby.network.flit_queueing_latency |   579169010                       |   237079317                       |    97142888                       |      502640                       |   111554188                      
system.ruby.network.flits_injected       |    96334508     41.56%     41.56% |    38666147     16.68%     58.25% |    16190481      6.99%     65.23% |      370940      0.16%     65.39% |    80206400     34.61%    100.00%
system.ruby.network.flits_injected::total    231768476                      
system.ruby.network.flits_received       |    96334508     41.56%     41.56% |    38666147     16.68%     58.25% |    16190481      6.99%     65.23% |      370940      0.16%     65.39% |    80206400     34.61%    100.00%
system.ruby.network.flits_received::total    231768476                      
system.ruby.network.int_link_utilization    231637887                      
system.ruby.network.packet_network_latency |   482092168                       |   194938994                       |    80969917                       |     1897183                       |   401086809                      
system.ruby.network.packet_queueing_latency |   152971102                       |    47415897                       |    97142888                       |      100528                       |    60591784                      
system.ruby.network.packets_injected     |    25456060     25.77%     25.77% |     7733235      7.83%     33.59% |    16190481     16.39%     49.98% |       74188      0.08%     50.06% |    49341948     49.94%    100.00%
system.ruby.network.packets_injected::total     98795912                      
system.ruby.network.packets_received     |    25456060     25.77%     25.77% |     7733235      7.83%     33.59% |    16190481     16.39%     49.98% |       74188      0.08%     50.06% |    49341948     49.94%    100.00%
system.ruby.network.packets_received::total     98795912                      
system.ruby.network.routers0.buffer_reads    125692756                      
system.ruby.network.routers0.buffer_writes    125692756                      
system.ruby.network.routers0.crossbar_activity    125692756                      
system.ruby.network.routers0.sw_input_arbiter_activity    125897049                      
system.ruby.network.routers0.sw_output_arbiter_activity    125692756                      
system.ruby.network.routers1.buffer_reads    113460932                      
system.ruby.network.routers1.buffer_writes    113460932                      
system.ruby.network.routers1.crossbar_activity    113460932                      
system.ruby.network.routers1.sw_input_arbiter_activity    113561317                      
system.ruby.network.routers1.sw_output_arbiter_activity    113460932                      
system.ruby.network.routers2.buffer_reads    114669945                      
system.ruby.network.routers2.buffer_writes    114669945                      
system.ruby.network.routers2.crossbar_activity    114669945                      
system.ruby.network.routers2.sw_input_arbiter_activity    114792104                      
system.ruby.network.routers2.sw_output_arbiter_activity    114669945                      
system.ruby.network.routers3.buffer_reads    109582730                      
system.ruby.network.routers3.buffer_writes    109582730                      
system.ruby.network.routers3.crossbar_activity    109582730                      
system.ruby.network.routers3.sw_input_arbiter_activity    109676842                      
system.ruby.network.routers3.sw_output_arbiter_activity    109582730                      
system.ruby.outstanding_req_hist_seqr::bucket_size            1                      
system.ruby.outstanding_req_hist_seqr::max_bucket            9                      
system.ruby.outstanding_req_hist_seqr::samples   6287017817                      
system.ruby.outstanding_req_hist_seqr::mean     1.000805                      
system.ruby.outstanding_req_hist_seqr::gmean     1.000558                      
system.ruby.outstanding_req_hist_seqr::stdev     0.028353                      
system.ruby.outstanding_req_hist_seqr    |           0      0.00%      0.00% |  6281959725     99.92%     99.92% |     5058092      0.08%    100.00% |           0      0.00%    100.00% |           0      0.00%    100.00% |           0      0.00%    100.00% |           0      0.00%    100.00% |           0      0.00%    100.00% |           0      0.00%    100.00% |           0      0.00%    100.00%
system.ruby.outstanding_req_hist_seqr::total   6287017817                      
system.switch_cpus0.Branches                115989001                       # Number of branches fetched
system.switch_cpus0.committedInsts         1032469532                       # Number of instructions committed
system.switch_cpus0.committedOps           1811327417                       # Number of ops (including micro ops) committed
system.switch_cpus0.dtb.rdAccesses          218559789                       # TLB accesses on read requests
system.switch_cpus0.dtb.rdMisses               815839                       # TLB misses on read requests
system.switch_cpus0.dtb.wrAccesses           71114228                       # TLB accesses on write requests
system.switch_cpus0.dtb.wrMisses               309909                       # TLB misses on write requests
system.switch_cpus0.idle_fraction            0.004539                       # Percentage of idle cycles
system.switch_cpus0.itb.rdAccesses                  0                       # TLB accesses on read requests
system.switch_cpus0.itb.rdMisses                    0                       # TLB misses on read requests
system.switch_cpus0.itb.wrAccesses         1431871559                       # TLB accesses on write requests
system.switch_cpus0.itb.wrMisses                70834                       # TLB misses on write requests
system.switch_cpus0.kern.inst.arm                   0                       # number of arm instructions executed
system.switch_cpus0.kern.inst.quiesce               0                       # number of quiesce instructions executed
system.switch_cpus0.not_idle_fraction        0.995461                       # Percentage of non-idle cycles
system.switch_cpus0.numCycles              4331929109                       # number of cpu cycles simulated
system.switch_cpus0.numWorkItemsCompleted            0                       # number of work items this cpu completed
system.switch_cpus0.numWorkItemsStarted             0                       # number of work items this cpu started
system.switch_cpus0.num_busy_cycles      4312264555.512976                       # Number of busy cycles
system.switch_cpus0.num_cc_register_reads    946415945                       # number of times the CC registers were read
system.switch_cpus0.num_cc_register_writes    659209684                       # number of times the CC registers were written
system.switch_cpus0.num_conditional_control_insts     96653931                       # number of instructions that are conditional controls
system.switch_cpus0.num_fp_alu_accesses     430494597                       # Number of float alu accesses
system.switch_cpus0.num_fp_insts            430494597                       # number of float instructions
system.switch_cpus0.num_fp_register_reads    678441790                       # number of times the floating registers were read
system.switch_cpus0.num_fp_register_writes    385249924                       # number of times the floating registers were written
system.switch_cpus0.num_func_calls            8579128                       # number of times a function call or return occured
system.switch_cpus0.num_idle_cycles      19664553.487024                       # Number of idle cycles
system.switch_cpus0.num_int_alu_accesses   1492884245                       # Number of integer alu accesses
[...]
system.mem_ctrls1.rank1.readEnergy          362690580                       # Energy for read commands per rank (pJ)
system.mem_ctrls1.rank1.writeEnergy                 0                       # Energy for write commands per rank (pJ)
system.mem_ctrls1.rank1.refreshEnergy    170979325920.000031                       # Energy for refresh commands per rank (pJ)
system.mem_ctrls1.rank1.actBackEnergy     63552367740                       # Energy for active background per rank (pJ)
system.mem_ctrls1.rank1.preBackEnergy    778212217920                       # Energy for precharge background per rank (pJ)
system.mem_ctrls1.rank1.actPowerDownEnergy            0                       # Energy for active power-down per rank (pJ)
system.mem_ctrls1.rank1.prePowerDownEnergy            0                       # Energy for precharge power-down per rank (pJ)
system.mem_ctrls1.rank1.selfRefreshEnergy            0                       # Energy for self refresh per rank (pJ)
system.mem_ctrls1.rank1.totalEnergy      1013287445190                       # Total energy per rank (pJ)
system.mem_ctrls1.rank1.averagePower       467.822715                       # Core power per rank (mW)
system.mem_ctrls1.rank1.totalIdleTime               0                       # Total Idle time Per DRAM Rank
system.mem_ctrls1.rank1.memoryStateTime::IDLE 2022568763751                       # Time in different power states
system.mem_ctrls1.rank1.memoryStateTime::REF  72326280000                       # Time in different power states
system.mem_ctrls1.rank1.memoryStateTime::SREF            0                       # Time in different power states
system.mem_ctrls1.rank1.memoryStateTime::PRE_PDN            0                       # Time in different power states
system.mem_ctrls1.rank1.memoryStateTime::ACT  71069567250                       # Time in different power states
system.mem_ctrls1.rank1.memoryStateTime::ACT_PDN            0                       # Time in different power states
system.mem_ctrls1.rank0.actEnergy           123072180                       # Energy for activate commands per rank (pJ)
system.mem_ctrls1.rank0.preEnergy            65410620                       # Energy for precharge commands per rank (pJ)
system.mem_ctrls1.rank0.readEnergy          378212940                       # Energy for read commands per rank (pJ)
system.mem_ctrls1.rank0.writeEnergy                 0                       # Energy for write commands per rank (pJ)
system.mem_ctrls1.rank0.refreshEnergy    170979325920.000031                       # Energy for refresh commands per rank (pJ)
system.mem_ctrls1.rank0.actBackEnergy     64380985290                       # Energy for active background per rank (pJ)
system.mem_ctrls1.rank0.preBackEnergy    777514675200                       # Energy for precharge background per rank (pJ)
system.mem_ctrls1.rank0.actPowerDownEnergy            0                       # Energy for active power-down per rank (pJ)
system.mem_ctrls1.rank0.prePowerDownEnergy            0                       # Energy for precharge power-down per rank (pJ)
system.mem_ctrls1.rank0.selfRefreshEnergy            0                       # Energy for self refresh per rank (pJ)
system.mem_ctrls1.rank0.totalEnergy      1013441682150                       # Total energy per rank (pJ)
system.mem_ctrls1.rank0.averagePower       467.893924                       # Core power per rank (mW)
system.mem_ctrls1.rank0.totalIdleTime               0                       # Total Idle time Per DRAM Rank
system.mem_ctrls1.rank0.memoryStateTime::IDLE 2020745273250                       # Time in different power states
system.mem_ctrls1.rank0.memoryStateTime::REF  72326280000                       # Time in different power states
system.mem_ctrls1.rank0.memoryStateTime::SREF            0                       # Time in different power states
system.mem_ctrls1.rank0.memoryStateTime::PRE_PDN            0                       # Time in different power states
system.mem_ctrls1.rank0.memoryStateTime::ACT  72893057751                       # Time in different power states
system.mem_ctrls1.rank0.memoryStateTime::ACT_PDN            0                       # Time in different power states
system.mem_ctrls1.power_state.pwrStateResidencyTicks::UNDEFINED 104133641994001                       # Cumulative time (in ticks) in various power states
system.cpu_voltage_domain.voltage                   1                       # Voltage in Volts
system.iobus.trans_dist::ReadReq                  968                       # Transaction distribution
system.iobus.trans_dist::ReadResp                 968                       # Transaction distribution
system.iobus.trans_dist::WriteReq               12574                       # Transaction distribution
system.iobus.trans_dist::WriteResp              12574                       # Transaction distribution
system.iobus.pkt_count_system.pc.south_bridge.io_apic.int_master::system.ruby.l1_cntrl1.sequencer.pio-slave-port           98                       # Packet count per connected master and slave (bytes)
system.iobus.pkt_count_system.pc.south_bridge.io_apic.int_master::total           98                       # Packet count per connected master and slave (bytes)
system.iobus.pkt_count_system.ruby.l1_cntrl0.sequencer.mem-master-port::system.pc.south_bridge.ide.pio          680                       # Packet count per connected master and slave (bytes)
system.iobus.pkt_count_system.ruby.l1_cntrl0.sequencer.mem-master-port::system.ruby.l1_cntrl0.sequencer.pio-slave-port         5986                       # Packet count per connected master and slave (bytes)
system.iobus.pkt_count_system.ruby.l1_cntrl0.sequencer.mem-master-port::system.ruby.l1_cntrl1.sequencer.pio-slave-port          214                       # Packet count per connected master and slave (bytes)
system.iobus.pkt_count_system.ruby.l1_cntrl0.sequencer.mem-master-port::system.ruby.l1_cntrl2.sequencer.pio-slave-port          170                       # Packet count per connected master and slave (bytes)
system.iobus.pkt_count_system.ruby.l1_cntrl0.sequencer.mem-master-port::system.ruby.l1_cntrl3.sequencer.pio-slave-port          144                       # Packet count per connected master and slave (bytes)
system.iobus.pkt_count_system.ruby.l1_cntrl0.sequencer.mem-master-port::total         7194                       # Packet count per connected master and slave (bytes)
system.iobus.pkt_count_system.ruby.l1_cntrl1.sequencer.mem-master-port::system.pc.south_bridge.ide.pio          380                       # Packet count per connected master and slave (bytes)
system.iobus.pkt_count_system.ruby.l1_cntrl1.sequencer.mem-master-port::system.pc.com_1.pio          182                       # Packet count per connected master and slave (bytes)
system.iobus.pkt_count_system.ruby.l1_cntrl1.sequencer.mem-master-port::system.ruby.l1_cntrl0.sequencer.pio-slave-port          350                       # Packet count per connected master and slave (bytes)
system.iobus.pkt_count_system.ruby.l1_cntrl1.sequencer.mem-master-port::system.ruby.l1_cntrl1.sequencer.pio-slave-port         5886                       # Packet count per connected master and slave (bytes)
system.iobus.pkt_count_system.ruby.l1_cntrl1.sequencer.mem-master-port::system.ruby.l1_cntrl2.sequencer.pio-slave-port           96                       # Packet count per connected master and slave (bytes)
system.iobus.pkt_count_system.ruby.l1_cntrl1.sequencer.mem-master-port::system.ruby.l1_cntrl3.sequencer.pio-slave-port           74                       # Packet count per connected master and slave (bytes)
system.iobus.pkt_count_system.ruby.l1_cntrl1.sequencer.mem-master-port::total         6968                       # Packet count per connected master and slave (bytes)
system.iobus.pkt_count_system.ruby.l1_cntrl2.sequencer.mem-master-port::system.pc.south_bridge.ide.pio          102                       # Packet count per connected master and slave (bytes)
system.iobus.pkt_count_system.ruby.l1_cntrl2.sequencer.mem-master-port::system.pc.com_1.pio            2                       # Packet count per connected master and slave (bytes)
system.iobus.pkt_count_system.ruby.l1_cntrl2.sequencer.mem-master-port::system.ruby.l1_cntrl0.sequencer.pio-slave-port          408                       # Packet count per connected master and slave (bytes)
system.iobus.pkt_count_system.ruby.l1_cntrl2.sequencer.mem-master-port::system.ruby.l1_cntrl1.sequencer.pio-slave-port          184                       # Packet count per connected master and slave (bytes)
system.iobus.pkt_count_system.ruby.l1_cntrl2.sequencer.mem-master-port::system.ruby.l1_cntrl2.sequencer.pio-slave-port         5806                       # Packet count per connected master and slave (bytes)
system.iobus.pkt_count_system.ruby.l1_cntrl2.sequencer.mem-master-port::system.ruby.l1_cntrl3.sequencer.pio-slave-port          190                       # Packet count per connected master and slave (bytes)
system.iobus.pkt_count_system.ruby.l1_cntrl2.sequencer.mem-master-port::total         6692                       # Packet count per connected master and slave (bytes)
system.iobus.pkt_count_system.ruby.l1_cntrl3.sequencer.mem-master-port::system.pc.south_bridge.ide.pio           34                       # Packet count per connected master and slave (bytes)
system.iobus.pkt_count_system.ruby.l1_cntrl3.sequencer.mem-master-port::system.ruby.l1_cntrl0.sequencer.pio-slave-port          292                       # Packet count per connected master and slave (bytes)
system.iobus.pkt_count_system.ruby.l1_cntrl3.sequencer.mem-master-port::system.ruby.l1_cntrl1.sequencer.pio-slave-port           60                       # Packet count per connected master and slave (bytes)
system.iobus.pkt_count_system.ruby.l1_cntrl3.sequencer.mem-master-port::system.ruby.l1_cntrl2.sequencer.pio-slave-port           76                       # Packet count per connected master and slave (bytes)
system.iobus.pkt_count_system.ruby.l1_cntrl3.sequencer.mem-master-port::system.ruby.l1_cntrl3.sequencer.pio-slave-port         5670                       # Packet count per connected master and slave (bytes)
system.iobus.pkt_count_system.ruby.l1_cntrl3.sequencer.mem-master-port::total         6132                       # Packet count per connected master and slave (bytes)
system.iobus.pkt_count::total                   27084                       # Packet count per connected master and slave (bytes)
system.iobus.pkt_size_system.pc.south_bridge.io_apic.int_master::system.ruby.l1_cntrl1.sequencer.pio-slave-port          196                       # Cumulative packet size per connected master and slave (bytes)
system.iobus.pkt_size_system.pc.south_bridge.io_apic.int_master::total          196                       # Cumulative packet size per connected master and slave (bytes)
system.iobus.pkt_size_system.ruby.l1_cntrl0.sequencer.mem-master-port::system.pc.south_bridge.ide.pio          400                       # Cumulative packet size per connected master and slave (bytes)
system.iobus.pkt_size_system.ruby.l1_cntrl0.sequencer.mem-master-port::system.ruby.l1_cntrl0.sequencer.pio-slave-port        11972                       # Cumulative packet size per connected master and slave (bytes)
system.iobus.pkt_size_system.ruby.l1_cntrl0.sequencer.mem-master-port::system.ruby.l1_cntrl1.sequencer.pio-slave-port          428                       # Cumulative packet size per connected master and slave (bytes)
system.iobus.pkt_size_system.ruby.l1_cntrl0.sequencer.mem-master-port::system.ruby.l1_cntrl2.sequencer.pio-slave-port          340                       # Cumulative packet size per connected master and slave (bytes)
system.iobus.pkt_size_system.ruby.l1_cntrl0.sequencer.mem-master-port::system.ruby.l1_cntrl3.sequencer.pio-slave-port          288                       # Cumulative packet size per connected master and slave (bytes)
system.iobus.pkt_size_system.ruby.l1_cntrl0.sequencer.mem-master-port::total        13428                       # Cumulative packet size per connected master and slave (bytes)
system.iobus.pkt_size_system.ruby.l1_cntrl1.sequencer.mem-master-port::system.pc.south_bridge.ide.pio          196                       # Cumulative packet size per connected master and slave (bytes)
system.iobus.pkt_size_system.ruby.l1_cntrl1.sequencer.mem-master-port::system.pc.com_1.pio           91                       # Cumulative packet size per connected master and slave (bytes)
system.iobus.pkt_size_system.ruby.l1_cntrl1.sequencer.mem-master-port::system.ruby.l1_cntrl0.sequencer.pio-slave-port          700                       # Cumulative packet size per connected master and slave (bytes)
system.iobus.pkt_size_system.ruby.l1_cntrl1.sequencer.mem-master-port::system.ruby.l1_cntrl1.sequencer.pio-slave-port        11772                       # Cumulative packet size per connected master and slave (bytes)
system.iobus.pkt_size_system.ruby.l1_cntrl1.sequencer.mem-master-port::system.ruby.l1_cntrl2.sequencer.pio-slave-port          192                       # Cumulative packet size per connected master and slave (bytes)
system.iobus.pkt_size_system.ruby.l1_cntrl1.sequencer.mem-master-port::system.ruby.l1_cntrl3.sequencer.pio-slave-port          148                       # Cumulative packet size per connected master and slave (bytes)
system.iobus.pkt_size_system.ruby.l1_cntrl1.sequencer.mem-master-port::total        13099                       # Cumulative packet size per connected master and slave (bytes)
system.iobus.pkt_size_system.ruby.l1_cntrl2.sequencer.mem-master-port::system.pc.south_bridge.ide.pio           60                       # Cumulative packet size per connected master and slave (bytes)
system.iobus.pkt_size_system.ruby.l1_cntrl2.sequencer.mem-master-port::system.pc.com_1.pio            1                       # Cumulative packet size per connected master and slave (bytes)
system.iobus.pkt_size_system.ruby.l1_cntrl2.sequencer.mem-master-port::system.ruby.l1_cntrl0.sequencer.pio-slave-port          816                       # Cumulative packet size per connected master and slave (bytes)
system.iobus.pkt_size_system.ruby.l1_cntrl2.sequencer.mem-master-port::system.ruby.l1_cntrl1.sequencer.pio-slave-port          368                       # Cumulative packet size per connected master and slave (bytes)
system.iobus.pkt_size_system.ruby.l1_cntrl2.sequencer.mem-master-port::system.ruby.l1_cntrl2.sequencer.pio-slave-port        11612                       # Cumulative packet size per connected master and slave (bytes)
system.iobus.pkt_size_system.ruby.l1_cntrl2.sequencer.mem-master-port::system.ruby.l1_cntrl3.sequencer.pio-slave-port          380                       # Cumulative packet size per connected master and slave (bytes)
system.iobus.pkt_size_system.ruby.l1_cntrl2.sequencer.mem-master-port::total        13237                       # Cumulative packet size per connected master and slave (bytes)
system.iobus.pkt_size_system.ruby.l1_cntrl3.sequencer.mem-master-port::system.pc.south_bridge.ide.pio           20                       # Cumulative packet size per connected master and slave (bytes)
system.iobus.pkt_size_system.ruby.l1_cntrl3.sequencer.mem-master-port::system.ruby.l1_cntrl0.sequencer.pio-slave-port          584                       # Cumulative packet size per connected master and slave (bytes)
system.iobus.pkt_size_system.ruby.l1_cntrl3.sequencer.mem-master-port::system.ruby.l1_cntrl1.sequencer.pio-slave-port          120                       # Cumulative packet size per connected master and slave (bytes)
system.iobus.pkt_size_system.ruby.l1_cntrl3.sequencer.mem-master-port::system.ruby.l1_cntrl2.sequencer.pio-slave-port          152                       # Cumulative packet size per connected master and slave (bytes)
system.iobus.pkt_size_system.ruby.l1_cntrl3.sequencer.mem-master-port::system.ruby.l1_cntrl3.sequencer.pio-slave-port        11340                       # Cumulative packet size per connected master and slave (bytes)
system.iobus.pkt_size_system.ruby.l1_cntrl3.sequencer.mem-master-port::total        12216                       # Cumulative packet size per connected master and slave (bytes)
system.iobus.pkt_size::total                    52176                       # Cumulative packet size per connected master and slave (bytes)
system.iobus.reqLayer2.occupancy               993000                       # Layer occupancy (ticks)
system.iobus.reqLayer2.utilization                0.0                       # Layer utilization (%)
system.iobus.power_state.pwrStateResidencyTicks::UNDEFINED 104133641994001                       # Cumulative time (in ticks) in various power states
system.iobus.reqLayer19.occupancy             7142654                       # Layer occupancy (ticks)
system.iobus.reqLayer19.utilization               0.0                       # Layer utilization (%)
system.iobus.reqLayer17.occupancy             8571229                       # Layer occupancy (ticks)
system.iobus.reqLayer17.utilization               0.0                       # Layer utilization (%)
system.iobus.reqLayer12.occupancy              116500                       # Layer occupancy (ticks)
system.iobus.reqLayer12.utilization               0.0                       # Layer utilization (%)
system.iobus.reqLayer18.occupancy             7489197                       # Layer occupancy (ticks)
system.iobus.reqLayer18.utilization               0.0                       # Layer utilization (%)
system.iobus.respLayer9.occupancy             4640500                       # Layer occupancy (ticks)
system.iobus.respLayer9.utilization               0.0                       # Layer utilization (%)
system.iobus.respLayer5.occupancy             5305500                       # Layer occupancy (ticks)
system.iobus.respLayer5.utilization               0.0                       # Layer utilization (%)
system.iobus.respLayer7.occupancy             4987000                       # Layer occupancy (ticks)
system.iobus.respLayer7.utilization               0.0                       # Layer utilization (%)
system.iobus.respLayer0.occupancy               80474                       # Layer occupancy (ticks)
system.iobus.respLayer0.utilization               0.0                       # Layer utilization (%)
system.iobus.respLayer3.occupancy             5263500                       # Layer occupancy (ticks)
system.iobus.respLayer3.utilization               0.0                       # Layer utilization (%)
system.iobus.reqLayer20.occupancy             7137412                       # Layer occupancy (ticks)
system.iobus.reqLayer20.utilization               0.0                       # Layer utilization (%)

---------- End Simulation Statistics   ----------
ayer occupancy (ticks)
system.iobus.respLayer9.utilization               0.0                       # Layer utilization (%)
system.iobus.respLayer5.occupancy             8931500                       # Layer occupancy (ticks)
system.iobus.respLayer5.utilization               0.0                       # Layer utilization (%)
system.iobus.respLayer7.occupancy             4402000                       # Layer occupancy (ticks)
system.iobus.respLayer7.utilization               0.0                       # Layer utilization (%)
system.iobus.respLayer0.occupancy              620164                       # Layer occupancy (ticks)
system.iobus.respLayer0.utilization               0.0                       # Layer utilization (%)
system.iobus.respLayer3.occupancy            10980500                       # Layer occupancy (ticks)
system.iobus.respLayer3.utilization               0.0                       # Layer utilization (%)
system.iobus.reqLayer20.occupancy             8016206                       # Layer occupancy (ticks)
system.iobus.reqLayer20.utilization               0.0                       # Layer utilization (%)

---------- End Simulation Statistics   ----------
