
---------- Begin Simulation Statistics ----------
final_tick                               99348896152001                       # Number of ticks from beginning of simulation (restored from checkpoints and never reset)
host_inst_rate                                7098239                       # Simulator instruction rate (inst/s)
host_mem_usage                                1497616                       # Number of bytes of host memory used
host_op_rate                                  7261748                       # Simulator op (including micro ops) rate (op/s)
host_seconds                                   712.22                       # Real time elapsed on the host
host_tick_rate                               92975395                       # Simulator tick rate (ticks/s)
sim_freq                                 1000000000000                       # Frequency of simulated ticks
sim_insts                                  5055515835                       # Number of instructions simulated
sim_ops                                    5171971126                       # Number of ops (including micro ops) simulated
sim_seconds                                  0.066219                       # Number of seconds simulated
sim_ticks                                 66219056501                       # Number of ticks simulated
system.cpu0.committedInsts                          0                       # Number of instructions committed
system.cpu0.dtb.rdAccesses                          0                       # TLB accesses on read requests
system.cpu0.dtb.rdMisses                            0                       # TLB misses on read requests
system.cpu0.dtb.wrAccesses                          0                       # TLB accesses on write requests
system.cpu0.dtb.wrMisses                            0                       # TLB misses on write requests
system.cpu0.itb.rdAccesses                          0                       # TLB accesses on read requests
system.cpu0.itb.rdMisses                            0                       # TLB misses on read requests
system.cpu0.itb.wrAccesses                          0                       # TLB accesses on write requests
system.cpu0.itb.wrMisses                            0                       # TLB misses on write requests
system.cpu0.kern.inst.arm                           0                       # number of arm instructions executed
system.cpu0.kern.inst.quiesce                       0                       # number of quiesce instructions executed
system.cpu0.numCoalescedMMIO                        0                       # number of coalesced memory mapped IO requests
system.cpu0.numCycles                               0                       # number of cpu cycles simulated
system.cpu0.numExitSignal                           0                       # exits due to signal delivery
system.cpu0.numHalt                                 0                       # number of VM exits due to wait for interrupt instructions
system.cpu0.numHypercalls                           0                       # number of hypercalls
system.cpu0.numIO                                   0                       # number of VM exits due to legacy IO
system.cpu0.numInterrupts                           0                       # number of interrupts delivered
system.cpu0.numMMIO                                 0                       # number of VM exits due to memory mapped IO
system.cpu0.numVMExits                              0                       # total number of KVM exits
system.cpu0.numVMHalfEntries                        0                       # number of KVM entries to finalize pending operations
system.cpu0.numWorkItemsCompleted                   0                       # number of work items this cpu completed
system.cpu0.numWorkItemsStarted                     0                       # number of work items this cpu started
system.cpu1.committedInsts                          0                       # Number of instructions committed
system.cpu1.dtb.rdAccesses                          0                       # TLB accesses on read requests
system.cpu1.dtb.rdMisses                            0                       # TLB misses on read requests
system.cpu1.dtb.wrAccesses                          0                       # TLB accesses on write requests
system.cpu1.dtb.wrMisses                            0                       # TLB misses on write requests
system.cpu1.itb.rdAccesses                          0                       # TLB accesses on read requests
system.cpu1.itb.rdMisses                            0                       # TLB misses on read requests
system.cpu1.itb.wrAccesses                          0                       # TLB accesses on write requests
system.cpu1.itb.wrMisses                            0                       # TLB misses on write requests
system.cpu1.kern.inst.arm                           0                       # number of arm instructions executed
system.cpu1.kern.inst.quiesce                       0                       # number of quiesce instructions executed
system.cpu1.numCoalescedMMIO                        0                       # number of coalesced memory mapped IO requests
system.cpu1.numCycles                               0                       # number of cpu cycles simulated
system.cpu1.numExitSignal                           0                       # exits due to signal delivery
system.cpu1.numHalt                                 0                       # number of VM exits due to wait for interrupt instructions
system.cpu1.numHypercalls                           0                       # number of hypercalls
system.cpu1.numIO                                   0                       # number of VM exits due to legacy IO
system.cpu1.numInterrupts                           0                       # number of interrupts delivered
system.cpu1.numMMIO                                 0                       # number of VM exits due to memory mapped IO
system.cpu1.numVMExits                              0                       # total number of KVM exits
system.cpu1.numVMHalfEntries                        0                       # number of KVM entries to finalize pending operations
system.cpu1.numWorkItemsCompleted                   0                       # number of work items this cpu completed
system.cpu1.numWorkItemsStarted                     0                       # number of work items this cpu started
system.cpu2.committedInsts                          0                       # Number of instructions committed
system.cpu2.dtb.rdAccesses                          0                       # TLB accesses on read requests
system.cpu2.dtb.rdMisses                            0                       # TLB misses on read requests
system.cpu2.dtb.wrAccesses                          0                       # TLB accesses on write requests
system.cpu2.dtb.wrMisses                            0                       # TLB misses on write requests
system.cpu2.itb.rdAccesses                          0                       # TLB accesses on read requests
system.cpu2.itb.rdMisses                            0                       # TLB misses on read requests
system.cpu2.itb.wrAccesses                          0                       # TLB accesses on write requests
system.cpu2.itb.wrMisses                            0                       # TLB misses on write requests
system.cpu2.kern.inst.arm                           0                       # number of arm instructions executed
system.cpu2.kern.inst.quiesce                       0                       # number of quiesce instructions executed
system.cpu2.numCoalescedMMIO                        0                       # number of coalesced memory mapped IO requests
system.cpu2.numCycles                               0                       # number of cpu cycles simulated
system.cpu2.numExitSignal                           0                       # exits due to signal delivery
system.cpu2.numHalt                                 0                       # number of VM exits due to wait for interrupt instructions
system.cpu2.numHypercalls                           0                       # number of hypercalls
system.cpu2.numIO                                   0                       # number of VM exits due to legacy IO
system.cpu2.numInterrupts                           0                       # number of interrupts delivered
system.cpu2.numMMIO                                 0                       # number of VM exits due to memory mapped IO
system.cpu2.numVMExits                              0                       # total number of KVM exits
system.cpu2.numVMHalfEntries                        0                       # number of KVM entries to finalize pending operations
system.cpu2.numWorkItemsCompleted                   0                       # number of work items this cpu completed
system.cpu2.numWorkItemsStarted                     0                       # number of work items this cpu started
system.cpu3.committedInsts                          0                       # Number of instructions committed
system.cpu3.dtb.rdAccesses                          0                       # TLB accesses on read requests
system.cpu3.dtb.rdMisses                            0                       # TLB misses on read requests
system.cpu3.dtb.wrAccesses                          0                       # TLB accesses on write requests
system.cpu3.dtb.wrMisses                            0                       # TLB misses on write requests
system.cpu3.itb.rdAccesses                          0                       # TLB accesses on read requests
system.cpu3.itb.rdMisses                            0                       # TLB misses on read requests
system.cpu3.itb.wrAccesses                          0                       # TLB accesses on write requests
system.cpu3.itb.wrMisses                            0                       # TLB misses on write requests
system.cpu3.kern.inst.arm                           0                       # number of arm instructions executed
system.cpu3.kern.inst.quiesce                       0                       # number of quiesce instructions executed
system.cpu3.numCoalescedMMIO                        0                       # number of coalesced memory mapped IO requests
system.cpu3.numCycles                               0                       # number of cpu cycles simulated
system.cpu3.numExitSignal                           0                       # exits due to signal delivery
system.cpu3.numHalt                                 0                       # number of VM exits due to wait for interrupt instructions
system.cpu3.numHypercalls                           0                       # number of hypercalls
system.cpu3.numIO                                   0                       # number of VM exits due to legacy IO
system.cpu3.numInterrupts                           0                       # number of interrupts delivered
system.cpu3.numMMIO                                 0                       # number of VM exits due to memory mapped IO
system.cpu3.numVMExits                              0                       # total number of KVM exits
system.cpu3.numVMHalfEntries                        0                       # number of KVM entries to finalize pending operations
system.cpu3.numWorkItemsCompleted                   0                       # number of work items this cpu completed
system.cpu3.numWorkItemsStarted                     0                       # number of work items this cpu started
system.pc.south_bridge.ide.disks.dma_read_bytes            0                       # Number of bytes transfered via DMA reads (not PRD).
system.pc.south_bridge.ide.disks.dma_read_full_pages            0                       # Number of full page size DMA reads (not PRD).
system.pc.south_bridge.ide.disks.dma_read_txs            0                       # Number of DMA read transactions (not PRD).
system.pc.south_bridge.ide.disks.dma_write_bytes       180224                       # Number of bytes transfered via DMA writes.
system.pc.south_bridge.ide.disks.dma_write_full_pages           44                       # Number of full page size DMA writes.
system.pc.south_bridge.ide.disks.dma_write_txs           44                       # Number of DMA write transactions.
system.ruby.DMA_Controller.I.allocI_load |           7    100.00%    100.00% |           0      0.00%    100.00%
system.ruby.DMA_Controller.I.allocI_load::total            7                      
system.ruby.DMA_Controller.I.allocI_store |        2816    100.00%    100.00% |           0      0.00%    100.00%
system.ruby.DMA_Controller.I.allocI_store::total         2816                      
system.ruby.DMA_Controller.I.deallocnet0from_in |        1784    100.00%    100.00% |           0      0.00%    100.00%
system.ruby.DMA_Controller.I.deallocnet0from_in::total         1784                      
system.ruby.DMA_Controller.I.deallocnet2from_in |          15    100.00%    100.00% |           0      0.00%    100.00%
system.ruby.DMA_Controller.I.deallocnet2from_in::total           15                      
system.ruby.DMA_Controller.M.allocTBE    |        1796    100.00%    100.00% |           0      0.00%    100.00%
system.ruby.DMA_Controller.M.allocTBE::total         1796                      
system.ruby.DMA_Controller.M.externalstoreMnet1from_in |        2816    100.00%    100.00% |           0      0.00%    100.00%
system.ruby.DMA_Controller.M.externalstoreMnet1from_in::total         2816                      
system.ruby.DMA_Controller.M_evict.Stallmandatory_in |       26388    100.00%    100.00% |           0      0.00%    100.00%
system.ruby.DMA_Controller.M_evict.Stallmandatory_in::total        26388                      
system.ruby.DMA_Controller.S.SloadSEvent |          37    100.00%    100.00% |           0      0.00%    100.00%
system.ruby.DMA_Controller.S.SloadSEvent::total           37                      
system.ruby.DMA_Controller.S.allocTBE    |          18    100.00%    100.00% |           0      0.00%    100.00%
system.ruby.DMA_Controller.S.allocTBE::total           18                      
system.ruby.DMA_Controller.S.deallocTBE  |          12    100.00%    100.00% |           0      0.00%    100.00%
system.ruby.DMA_Controller.S.deallocTBE::total           12                      
system.ruby.DMA_Controller.S.externalloadSrespfrom_in |           7    100.00%    100.00% |           0      0.00%    100.00%
system.ruby.DMA_Controller.S.externalloadSrespfrom_in::total            7                      
system.ruby.DMA_Controller.S_evict.Stallmandatory_in |          34    100.00%    100.00% |           0      0.00%    100.00%
system.ruby.DMA_Controller.S_evict.Stallmandatory_in::total           34                      
system.ruby.DMA_Controller.SloadSEvent   |          37    100.00%    100.00% |           0      0.00%    100.00%
system.ruby.DMA_Controller.SloadSEvent::total           37                      
system.ruby.DMA_Controller.Stallmandatory_in |       26422    100.00%    100.00% |           0      0.00%    100.00%
system.ruby.DMA_Controller.Stallmandatory_in::total        26422                      
system.ruby.DMA_Controller.allocI_load   |           7    100.00%    100.00% |           0      0.00%    100.00%
system.ruby.DMA_Controller.allocI_load::total            7                      
system.ruby.DMA_Controller.allocI_store  |        2816    100.00%    100.00% |           0      0.00%    100.00%
system.ruby.DMA_Controller.allocI_store::total         2816                      
system.ruby.DMA_Controller.allocTBE      |        1814    100.00%    100.00% |           0      0.00%    100.00%
system.ruby.DMA_Controller.allocTBE::total         1814                      
system.ruby.DMA_Controller.deallocTBE    |          12    100.00%    100.00% |           0      0.00%    100.00%
system.ruby.DMA_Controller.deallocTBE::total           12                      
system.ruby.DMA_Controller.deallocnet0from_in |        1784    100.00%    100.00% |           0      0.00%    100.00%
system.ruby.DMA_Controller.deallocnet0from_in::total         1784                      
system.ruby.DMA_Controller.deallocnet2from_in |          15    100.00%    100.00% |           0      0.00%    100.00%
system.ruby.DMA_Controller.deallocnet2from_in::total           15                      
system.ruby.DMA_Controller.externalloadSrespfrom_in |           7    100.00%    100.00% |           0      0.00%    100.00%
system.ruby.DMA_Controller.externalloadSrespfrom_in::total            7                      
system.ruby.DMA_Controller.externalstoreMnet1from_in |        2816    100.00%    100.00% |           0      0.00%    100.00%
system.ruby.DMA_Controller.externalstoreMnet1from_in::total         2816                      
system.ruby.Directory_Controller.I.allocTBE |       20077     25.87%     25.87% |       19231     24.78%     50.64% |       18912     24.37%     75.01% |       19395     24.99%    100.00%
system.ruby.Directory_Controller.I.allocTBE::total        77615                      
system.ruby.Directory_Controller.I.deallocTBE |       19182     25.90%     25.90% |       18348     24.77%     50.67% |       18026     24.34%     75.01% |       18512     24.99%    100.00%
system.ruby.Directory_Controller.I.deallocTBE::total        74068                      
system.ruby.Directory_Controller.I_GetSL1C1_0.Stallreqto_in |          24     37.50%     37.50% |          26     40.62%     78.12% |           2      3.12%     81.25% |          12     18.75%    100.00%
system.ruby.Directory_Controller.I_GetSL1C1_0.Stallreqto_in::total           64                      
system.ruby.Directory_Controller.M.allocTBE |        5244     27.61%     27.61% |        4269     22.48%     50.09% |        4851     25.55%     75.64% |        4626     24.36%    100.00%
system.ruby.Directory_Controller.M.allocTBE::total        18990                      
system.ruby.Directory_Controller.M.deallocTBE |        5635     27.40%     27.40% |        4669     22.70%     50.10% |        5246     25.51%     75.61% |        5017     24.39%    100.00%
system.ruby.Directory_Controller.M.deallocTBE::total        20567                      
system.ruby.Directory_Controller.M_GetS.Progress |         343     33.20%     33.20% |         276     26.72%     59.92% |         219     21.20%     81.12% |         195     18.88%    100.00%
system.ruby.Directory_Controller.M_GetS.Progress::total         1033                      
system.ruby.Directory_Controller.M_GetS.Stallreqto_in |           0      0.00%      0.00% |          18    100.00%    100.00% |           0      0.00%    100.00% |           0      0.00%    100.00%
system.ruby.Directory_Controller.M_GetS.Stallreqto_in::total           18                      
system.ruby.Directory_Controller.M_GetS_WBL1C1_0.Stallreqto_in |          18     25.71%     25.71% |          29     41.43%     67.14% |          15     21.43%     88.57% |           8     11.43%    100.00%
system.ruby.Directory_Controller.M_GetS_WBL1C1_0.Stallreqto_in::total           70                      
system.ruby.Directory_Controller.M_PutML1C1_0.Stallreqto_in |           0      0.00%      0.00% |           2    100.00%    100.00% |           0      0.00%    100.00% |           0      0.00%    100.00%
system.ruby.Directory_Controller.M_PutML1C1_0.Stallreqto_in::total            2                      
system.ruby.Directory_Controller.Progress |         343     33.20%     33.20% |         276     26.72%     59.92% |         219     21.20%     81.12% |         195     18.88%    100.00%
system.ruby.Directory_Controller.Progress::total         1033                      
system.ruby.Directory_Controller.S.allocTBE |       36876     25.20%     25.20% |       35229     24.07%     49.27% |       37876     25.88%     75.16% |       36356     24.84%    100.00%
system.ruby.Directory_Controller.S.allocTBE::total       146337                      
system.ruby.Directory_Controller.S.deallocTBE |       37380     25.20%     25.20% |       35712     24.08%     49.28% |       38367     25.87%     75.15% |       36848     24.85%    100.00%
system.ruby.Directory_Controller.S.deallocTBE::total       148307                      
system.ruby.Directory_Controller.S_GetML1C1_1.Stallreqto_in |           0      0.00%      0.00% |           2    100.00%    100.00% |           0      0.00%    100.00% |           0      0.00%    100.00%
system.ruby.Directory_Controller.S_GetML1C1_1.Stallreqto_in::total            2                      
system.ruby.Directory_Controller.S_GetSL1C1_0.Stallreqto_in |           7     87.50%     87.50% |           0      0.00%     87.50% |           1     12.50%    100.00% |           0      0.00%    100.00%
system.ruby.Directory_Controller.S_GetSL1C1_0.Stallreqto_in::total            8                      
system.ruby.Directory_Controller.Stallreqto_in |          49     29.88%     29.88% |          77     46.95%     76.83% |          18     10.98%     87.80% |          20     12.20%    100.00%
system.ruby.Directory_Controller.Stallreqto_in::total          164                      
system.ruby.Directory_Controller.allocTBE |       62197     25.60%     25.60% |       58729     24.17%     49.78% |       61639     25.37%     75.15% |       60377     24.85%    100.00%
system.ruby.Directory_Controller.allocTBE::total       242942                      
system.ruby.Directory_Controller.deallocTBE |       62197     25.60%     25.60% |       58729     24.17%     49.78% |       61639     25.37%     75.15% |       60377     24.85%    100.00%
system.ruby.Directory_Controller.deallocTBE::total       242942                      
system.ruby.IFETCH.hit_latency_hist_seqr::bucket_size            1                      
system.ruby.IFETCH.hit_latency_hist_seqr::max_bucket            9                      
system.ruby.IFETCH.hit_latency_hist_seqr::samples    207595670                      
system.ruby.IFETCH.hit_latency_hist_seqr |   207595670    100.00%    100.00% |           0      0.00%    100.00% |           0      0.00%    100.00% |           0      0.00%    100.00% |           0      0.00%    100.00% |           0      0.00%    100.00% |           0      0.00%    100.00% |           0      0.00%    100.00% |           0      0.00%    100.00% |           0      0.00%    100.00%
system.ruby.IFETCH.hit_latency_hist_seqr::total    207595670                      
system.ruby.IFETCH.latency_hist_seqr::bucket_size            1                      
system.ruby.IFETCH.latency_hist_seqr::max_bucket            9                      
system.ruby.IFETCH.latency_hist_seqr::samples    207642551                      
system.ruby.IFETCH.latency_hist_seqr     |   207642551    100.00%    100.00% |           0      0.00%    100.00% |           0      0.00%    100.00% |           0      0.00%    100.00% |           0      0.00%    100.00% |           0      0.00%    100.00% |           0      0.00%    100.00% |           0      0.00%    100.00% |           0      0.00%    100.00% |           0      0.00%    100.00%
system.ruby.IFETCH.latency_hist_seqr::total    207642551                      
system.ruby.IFETCH.miss_latency_hist_seqr::bucket_size            1                      
system.ruby.IFETCH.miss_latency_hist_seqr::max_bucket            9                      
system.ruby.IFETCH.miss_latency_hist_seqr::samples        46881                      
system.ruby.IFETCH.miss_latency_hist_seqr |       46881    100.00%    100.00% |           0      0.00%    100.00% |           0      0.00%    100.00% |           0      0.00%    100.00% |           0      0.00%    100.00% |           0      0.00%    100.00% |           0      0.00%    100.00% |           0      0.00%    100.00% |           0      0.00%    100.00% |           0      0.00%    100.00%
system.ruby.IFETCH.miss_latency_hist_seqr::total        46881                      
system.ruby.L1Cache_Controller.I.allocI_load |       27868     26.12%     26.12% |       22119     20.73%     46.86% |       28419     26.64%     73.50% |       28276     26.50%    100.00%
system.ruby.L1Cache_Controller.I.allocI_load::total       106682                      
system.ruby.L1Cache_Controller.I.allocI_store |        3103     22.66%     22.66% |        1660     12.12%     34.78% |        3806     27.79%     62.57% |        5127     37.43%    100.00%
system.ruby.L1Cache_Controller.I.allocI_store::total        13696                      
system.ruby.L1Cache_Controller.I.deallocnet0from_in |        3961     24.49%     24.49% |        2108     13.03%     37.53% |        4471     27.64%     65.17% |        5633     34.83%    100.00%
system.ruby.L1Cache_Controller.I.deallocnet0from_in::total        16173                      
system.ruby.L1Cache_Controller.I.deallocnet2from_in |       26009     25.96%     25.96% |       20666     20.63%     46.59% |       26739     26.69%     73.29% |       26760     26.71%    100.00%
system.ruby.L1Cache_Controller.I.deallocnet2from_in::total       100174                      
system.ruby.L1Cache_Controller.I_store.Progress |           0      0.00%      0.00% |           0      0.00%      0.00% |           0      0.00%      0.00% |           1    100.00%    100.00%
system.ruby.L1Cache_Controller.I_store.Progress::total            1                      
system.ruby.L1Cache_Controller.I_store.Stallnet0from_in |           6     35.29%     35.29% |           8     47.06%     82.35% |           0      0.00%     82.35% |           3     17.65%    100.00%
system.ruby.L1Cache_Controller.I_store.Stallnet0from_in::total           17                      
system.ruby.L1Cache_Controller.I_store_GetM_Ack_AD.Progress |          32     41.03%     41.03% |          17     21.79%     62.82% |          14     17.95%     80.77% |          15     19.23%    100.00%
system.ruby.L1Cache_Controller.I_store_GetM_Ack_AD.Progress::total           78                      
system.ruby.L1Cache_Controller.I_store_GetM_Ack_AD.Stallnet0from_in |           2     50.00%     50.00% |           0      0.00%     50.00% |           1     25.00%     75.00% |           1     25.00%    100.00%
system.ruby.L1Cache_Controller.I_store_GetM_Ack_AD.Stallnet0from_in::total            4                      
system.ruby.L1Cache_Controller.M.MloadMEvent |     2385411     25.09%     25.09% |     2374823     24.98%     50.07% |     2372831     24.96%     75.03% |     2374147     24.97%    100.00%
system.ruby.L1Cache_Controller.M.MloadMEvent::total      9507212                      
system.ruby.L1Cache_Controller.M.MstoreMEvent |     2104112     24.98%     24.98% |     2097817     24.90%     49.88% |     2129632     25.28%     75.16% |     2093007     24.84%    100.00%
system.ruby.L1Cache_Controller.M.MstoreMEvent::total      8424568                      
system.ruby.L1Cache_Controller.M.allocTBE |        4425     25.74%     25.74% |        2271     13.21%     38.94% |        4628     26.92%     65.86% |        5870     34.14%    100.00%
system.ruby.L1Cache_Controller.M.allocTBE::total        17194                      
system.ruby.L1Cache_Controller.M.externalstoreMnet1from_in |        3777     23.72%     23.72% |        1946     12.22%     35.94% |        4519     28.38%     64.32% |        5681     35.68%    100.00%
system.ruby.L1Cache_Controller.M.externalstoreMnet1from_in::total        15923                      
system.ruby.L1Cache_Controller.M.externalstoreMrespfrom_in |         776     42.45%     42.45% |         453     24.78%     67.23% |         259     14.17%     81.40% |         340     18.60%    100.00%
system.ruby.L1Cache_Controller.M.externalstoreMrespfrom_in::total         1828                      
system.ruby.L1Cache_Controller.M_evict.Stallmandatory_in |           0      0.00%      0.00% |           2      2.33%      2.33% |          63     73.26%     75.58% |          21     24.42%    100.00%
system.ruby.L1Cache_Controller.M_evict.Stallmandatory_in::total           86                      
system.ruby.L1Cache_Controller.MloadMEvent |     2385411     25.09%     25.09% |     2374823     24.98%     50.07% |     2372831     24.96%     75.03% |     2374147     24.97%    100.00%
system.ruby.L1Cache_Controller.MloadMEvent::total      9507212                      
system.ruby.L1Cache_Controller.MstoreMEvent |     2104112     24.98%     24.98% |     2097817     24.90%     49.88% |     2129632     25.28%     75.16% |     2093007     24.84%    100.00%
system.ruby.L1Cache_Controller.MstoreMEvent::total      8424568                      
system.ruby.L1Cache_Controller.Progress  |        2534     44.80%     44.80% |         953     16.85%     61.65% |        1098     19.41%     81.06% |        1071     18.94%    100.00%
system.ruby.L1Cache_Controller.Progress::total         5656                      
system.ruby.L1Cache_Controller.S.SloadSEvent |    59156534     24.98%     24.98% |    59251830     25.02%     50.00% |    59208171     25.00%     75.01% |    59178779     24.99%    100.00%
system.ruby.L1Cache_Controller.S.SloadSEvent::total    236795314                      
system.ruby.L1Cache_Controller.S.allocTBE |       27459     26.34%     26.34% |       21405     20.54%     46.88% |       27711     26.59%     73.47% |       27654     26.53%    100.00%
system.ruby.L1Cache_Controller.S.allocTBE::total       104229                      
system.ruby.L1Cache_Controller.S.deallocTBE |         464     45.45%     45.45% |         163     15.96%     61.41% |         157     15.38%     76.79% |         237     23.21%    100.00%
system.ruby.L1Cache_Controller.S.deallocTBE::total         1021                      
system.ruby.L1Cache_Controller.S.externalloadSnet0from_in |       27634     26.15%     26.15% |       21963     20.79%     46.94% |       27981     26.48%     73.43% |       28078     26.57%    100.00%
system.ruby.L1Cache_Controller.S.externalloadSnet0from_in::total       105656                      
system.ruby.L1Cache_Controller.S.externalloadSrespfrom_in |         234     22.81%     22.81% |         156     15.20%     38.01% |         438     42.69%     80.70% |         198     19.30%    100.00%
system.ruby.L1Cache_Controller.S.externalloadSrespfrom_in::total         1026                      
system.ruby.L1Cache_Controller.S_evict.Stallmandatory_in |          33     25.98%     25.98% |          30     23.62%     49.61% |          37     29.13%     78.74% |          27     21.26%    100.00%
system.ruby.L1Cache_Controller.S_evict.Stallmandatory_in::total          127                      
system.ruby.L1Cache_Controller.S_store.Progress |        1450     35.76%     35.76% |         739     18.22%     53.98% |         972     23.97%     77.95% |         894     22.05%    100.00%
system.ruby.L1Cache_Controller.S_store.Progress::total         4055                      
system.ruby.L1Cache_Controller.S_store.Stallnet0from_in |           1     20.00%     20.00% |           2     40.00%     60.00% |           0      0.00%     60.00% |           2     40.00%    100.00%
system.ruby.L1Cache_Controller.S_store.Stallnet0from_in::total            5                      
system.ruby.L1Cache_Controller.S_store_GetM_Ack_AD.Progress |        1052     69.12%     69.12% |         197     12.94%     82.06% |         112      7.36%     89.42% |         161     10.58%    100.00%
system.ruby.L1Cache_Controller.S_store_GetM_Ack_AD.Progress::total         1522                      
system.ruby.L1Cache_Controller.S_store_GetM_Ack_AD.Stallnet0from_in |           1     10.00%     10.00% |           5     50.00%     60.00% |           1     10.00%     70.00% |           3     30.00%    100.00%
system.ruby.L1Cache_Controller.S_store_GetM_Ack_AD.Stallnet0from_in::total           10                      
system.ruby.L1Cache_Controller.SloadSEvent |    59156534     24.98%     24.98% |    59251830     25.02%     50.00% |    59208171     25.00%     75.01% |    59178779     24.99%    100.00%
system.ruby.L1Cache_Controller.SloadSEvent::total    236795314                      
system.ruby.L1Cache_Controller.Stallmandatory_in |          33     15.49%     15.49% |          32     15.02%     30.52% |         100     46.95%     77.46% |          48     22.54%    100.00%
system.ruby.L1Cache_Controller.Stallmandatory_in::total          213                      
system.ruby.L1Cache_Controller.Stallnet0from_in |          10     27.78%     27.78% |          15     41.67%     69.44% |           2      5.56%     75.00% |           9     25.00%    100.00%
system.ruby.L1Cache_Controller.Stallnet0from_in::total           36                      
system.ruby.L1Cache_Controller.allocI_load |       27868     26.12%     26.12% |       22119     20.73%     46.86% |       28419     26.64%     73.50% |       28276     26.50%    100.00%
system.ruby.L1Cache_Controller.allocI_load::total       106682                      
system.ruby.L1Cache_Controller.allocI_store |        3103     22.66%     22.66% |        1660     12.12%     34.78% |        3806     27.79%     62.57% |        5127     37.43%    100.00%
system.ruby.L1Cache_Controller.allocI_store::total        13696                      
system.ruby.L1Cache_Controller.allocTBE  |       31884     26.26%     26.26% |       23676     19.50%     45.76% |       32339     26.63%     72.39% |       33524     27.61%    100.00%
system.ruby.L1Cache_Controller.allocTBE::total       121423                      
system.ruby.L1Cache_Controller.deallocTBE |         464     45.45%     45.45% |         163     15.96%     61.41% |         157     15.38%     76.79% |         237     23.21%    100.00%
system.ruby.L1Cache_Controller.deallocTBE::total         1021                      
system.ruby.L1Cache_Controller.deallocnet0from_in |        3961     24.49%     24.49% |        2108     13.03%     37.53% |        4471     27.64%     65.17% |        5633     34.83%    100.00%
system.ruby.L1Cache_Controller.deallocnet0from_in::total        16173                      
system.ruby.L1Cache_Controller.deallocnet2from_in |       26009     25.96%     25.96% |       20666     20.63%     46.59% |       26739     26.69%     73.29% |       26760     26.71%    100.00%
system.ruby.L1Cache_Controller.deallocnet2from_in::total       100174                      
system.ruby.L1Cache_Controller.externalloadSnet0from_in |       27634     26.15%     26.15% |       21963     20.79%     46.94% |       27981     26.48%     73.43% |       28078     26.57%    100.00%
system.ruby.L1Cache_Controller.externalloadSnet0from_in::total       105656                      
system.ruby.L1Cache_Controller.externalloadSrespfrom_in |         234     22.81%     22.81% |         156     15.20%     38.01% |         438     42.69%     80.70% |         198     19.30%    100.00%
system.ruby.L1Cache_Controller.externalloadSrespfrom_in::total         1026                      
system.ruby.L1Cache_Controller.externalstoreMnet1from_in |        3777     23.72%     23.72% |        1946     12.22%     35.94% |        4519     28.38%     64.32% |        5681     35.68%    100.00%
system.ruby.L1Cache_Controller.externalstoreMnet1from_in::total        15923                      
system.ruby.L1Cache_Controller.externalstoreMrespfrom_in |         776     42.45%     42.45% |         453     24.78%     67.23% |         259     14.17%     81.40% |         340     18.60%    100.00%
system.ruby.L1Cache_Controller.externalstoreMrespfrom_in::total         1828                      
system.ruby.LD.hit_latency_hist_seqr::bucket_size            1                      
system.ruby.LD.hit_latency_hist_seqr::max_bucket            9                      
system.ruby.LD.hit_latency_hist_seqr::samples     38706856                      
system.ruby.LD.hit_latency_hist_seqr     |    38706856    100.00%    100.00% |           0      0.00%    100.00% |           0      0.00%    100.00% |           0      0.00%    100.00% |           0      0.00%    100.00% |           0      0.00%    100.00% |           0      0.00%    100.00% |           0      0.00%    100.00% |           0      0.00%    100.00% |           0      0.00%    100.00%
system.ruby.LD.hit_latency_hist_seqr::total     38706856                      
system.ruby.LD.latency_hist_seqr::bucket_size            1                      
system.ruby.LD.latency_hist_seqr::max_bucket            9                      
system.ruby.LD.latency_hist_seqr::samples     38766657                      
system.ruby.LD.latency_hist_seqr         |    38766657    100.00%    100.00% |           0      0.00%    100.00% |           0      0.00%    100.00% |           0      0.00%    100.00% |           0      0.00%    100.00% |           0      0.00%    100.00% |           0      0.00%    100.00% |           0      0.00%    100.00% |           0      0.00%    100.00% |           0      0.00%    100.00%
system.ruby.LD.latency_hist_seqr::total      38766657                      
system.ruby.LD.miss_latency_hist_seqr::bucket_size            1                      
system.ruby.LD.miss_latency_hist_seqr::max_bucket            9                      
system.ruby.LD.miss_latency_hist_seqr::samples        59801                      
system.ruby.LD.miss_latency_hist_seqr    |       59801    100.00%    100.00% |           0      0.00%    100.00% |           0      0.00%    100.00% |           0      0.00%    100.00% |           0      0.00%    100.00% |           0      0.00%    100.00% |           0      0.00%    100.00% |           0      0.00%    100.00% |           0      0.00%    100.00% |           0      0.00%    100.00%
system.ruby.LD.miss_latency_hist_seqr::total        59801                      
system.ruby.Locked_RMW_Read.hit_latency_hist_seqr::bucket_size            1                      
system.ruby.Locked_RMW_Read.hit_latency_hist_seqr::max_bucket            9                      
system.ruby.Locked_RMW_Read.hit_latency_hist_seqr::samples         3504                      
system.ruby.Locked_RMW_Read.hit_latency_hist_seqr |        3504    100.00%    100.00% |           0      0.00%    100.00% |           0      0.00%    100.00% |           0      0.00%    100.00% |           0      0.00%    100.00% |           0      0.00%    100.00% |           0      0.00%    100.00% |           0      0.00%    100.00% |           0      0.00%    100.00% |           0      0.00%    100.00%
system.ruby.Locked_RMW_Read.hit_latency_hist_seqr::total         3504                      
system.ruby.Locked_RMW_Read.latency_hist_seqr::bucket_size            1                      
system.ruby.Locked_RMW_Read.latency_hist_seqr::max_bucket            9                      
system.ruby.Locked_RMW_Read.latency_hist_seqr::samples         4850                      
system.ruby.Locked_RMW_Read.latency_hist_seqr |        4850    100.00%    100.00% |           0      0.00%    100.00% |           0      0.00%    100.00% |           0      0.00%    100.00% |           0      0.00%    100.00% |           0      0.00%    100.00% |           0      0.00%    100.00% |           0      0.00%    100.00% |           0      0.00%    100.00% |           0      0.00%    100.00%
system.ruby.Locked_RMW_Read.latency_hist_seqr::total         4850                      
system.ruby.Locked_RMW_Read.miss_latency_hist_seqr::bucket_size            1                      
system.ruby.Locked_RMW_Read.miss_latency_hist_seqr::max_bucket            9                      
system.ruby.Locked_RMW_Read.miss_latency_hist_seqr::samples         1346                      
system.ruby.Locked_RMW_Read.miss_latency_hist_seqr |        1346    100.00%    100.00% |           0      0.00%    100.00% |           0      0.00%    100.00% |           0      0.00%    100.00% |           0      0.00%    100.00% |           0      0.00%    100.00% |           0      0.00%    100.00% |           0      0.00%    100.00% |           0      0.00%    100.00% |           0      0.00%    100.00%
system.ruby.Locked_RMW_Read.miss_latency_hist_seqr::total         1346                      
system.ruby.Locked_RMW_Write.hit_latency_hist_seqr::bucket_size            1                      
system.ruby.Locked_RMW_Write.hit_latency_hist_seqr::max_bucket            9                      
system.ruby.Locked_RMW_Write.hit_latency_hist_seqr::samples         4850                      
system.ruby.Locked_RMW_Write.hit_latency_hist_seqr |        4850    100.00%    100.00% |           0      0.00%    100.00% |           0      0.00%    100.00% |           0      0.00%    100.00% |           0      0.00%    100.00% |           0      0.00%    100.00% |           0      0.00%    100.00% |           0      0.00%    100.00% |           0      0.00%    100.00% |           0      0.00%    100.00%
system.ruby.Locked_RMW_Write.hit_latency_hist_seqr::total         4850                      
system.ruby.Locked_RMW_Write.latency_hist_seqr::bucket_size            1                      
system.ruby.Locked_RMW_Write.latency_hist_seqr::max_bucket            9                      
system.ruby.Locked_RMW_Write.latency_hist_seqr::samples         4850                      
system.ruby.Locked_RMW_Write.latency_hist_seqr |        4850    100.00%    100.00% |           0      0.00%    100.00% |           0      0.00%    100.00% |           0      0.00%    100.00% |           0      0.00%    100.00% |           0      0.00%    100.00% |           0      0.00%    100.00% |           0      0.00%    100.00% |           0      0.00%    100.00% |           0      0.00%    100.00%
system.ruby.Locked_RMW_Write.latency_hist_seqr::total         4850                      
system.ruby.RMW_Read.hit_latency_hist_seqr::bucket_size            1                      
system.ruby.RMW_Read.hit_latency_hist_seqr::max_bucket            9                      
system.ruby.RMW_Read.hit_latency_hist_seqr::samples        12929                      
system.ruby.RMW_Read.hit_latency_hist_seqr |       12929    100.00%    100.00% |           0      0.00%    100.00% |           0      0.00%    100.00% |           0      0.00%    100.00% |           0      0.00%    100.00% |           0      0.00%    100.00% |           0      0.00%    100.00% |           0      0.00%    100.00% |           0      0.00%    100.00% |           0      0.00%    100.00%
system.ruby.RMW_Read.hit_latency_hist_seqr::total        12929                      
system.ruby.RMW_Read.latency_hist_seqr::bucket_size            1                      
system.ruby.RMW_Read.latency_hist_seqr::max_bucket            9                      
system.ruby.RMW_Read.latency_hist_seqr::samples        14768                      
system.ruby.RMW_Read.latency_hist_seqr   |       14768    100.00%    100.00% |           0      0.00%    100.00% |           0      0.00%    100.00% |           0      0.00%    100.00% |           0      0.00%    100.00% |           0      0.00%    100.00% |           0      0.00%    100.00% |           0      0.00%    100.00% |           0      0.00%    100.00% |           0      0.00%    100.00%
system.ruby.RMW_Read.latency_hist_seqr::total        14768                      
system.ruby.RMW_Read.miss_latency_hist_seqr::bucket_size            1                      
system.ruby.RMW_Read.miss_latency_hist_seqr::max_bucket            9                      
system.ruby.RMW_Read.miss_latency_hist_seqr::samples         1839                      
system.ruby.RMW_Read.miss_latency_hist_seqr |        1839    100.00%    100.00% |           0      0.00%    100.00% |           0      0.00%    100.00% |           0      0.00%    100.00% |           0      0.00%    100.00% |           0      0.00%    100.00% |           0      0.00%    100.00% |           0      0.00%    100.00% |           0      0.00%    100.00% |           0      0.00%    100.00%
system.ruby.RMW_Read.miss_latency_hist_seqr::total         1839                      
system.ruby.ST.hit_latency_hist_seqr::bucket_size            1                      
system.ruby.ST.hit_latency_hist_seqr::max_bucket            9                      
system.ruby.ST.hit_latency_hist_seqr::samples      8403285                      
system.ruby.ST.hit_latency_hist_seqr     |     8403285    100.00%    100.00% |           0      0.00%    100.00% |           0      0.00%    100.00% |           0      0.00%    100.00% |           0      0.00%    100.00% |           0      0.00%    100.00% |           0      0.00%    100.00% |           0      0.00%    100.00% |           0      0.00%    100.00% |           0      0.00%    100.00%
system.ruby.ST.hit_latency_hist_seqr::total      8403285                      
system.ruby.ST.latency_hist_seqr::bucket_size            1                      
system.ruby.ST.latency_hist_seqr::max_bucket            9                      
system.ruby.ST.latency_hist_seqr::samples      8417851                      
system.ruby.ST.latency_hist_seqr         |     8417851    100.00%    100.00% |           0      0.00%    100.00% |           0      0.00%    100.00% |           0      0.00%    100.00% |           0      0.00%    100.00% |           0      0.00%    100.00% |           0      0.00%    100.00% |           0      0.00%    100.00% |           0      0.00%    100.00% |           0      0.00%    100.00%
system.ruby.ST.latency_hist_seqr::total       8417851                      
system.ruby.ST.miss_latency_hist_seqr::bucket_size            1                      
system.ruby.ST.miss_latency_hist_seqr::max_bucket            9                      
system.ruby.ST.miss_latency_hist_seqr::samples        14566                      
system.ruby.ST.miss_latency_hist_seqr    |       14566    100.00%    100.00% |           0      0.00%    100.00% |           0      0.00%    100.00% |           0      0.00%    100.00% |           0      0.00%    100.00% |           0      0.00%    100.00% |           0      0.00%    100.00% |           0      0.00%    100.00% |           0      0.00%    100.00% |           0      0.00%    100.00%
system.ruby.ST.miss_latency_hist_seqr::total        14566                      
system.ruby.dir_cntrl0.net0From.avg_buf_msgs     0.001448                       # Average number of messages in buffer
system.ruby.dir_cntrl0.net0From.avg_stall_time  2999.972466                       # Average number of cycles messages are stalled in this MB
system.ruby.dir_cntrl0.net1From.avg_buf_msgs     0.000335                       # Average number of messages in buffer
system.ruby.dir_cntrl0.net1From.avg_stall_time  3010.977342                       # Average number of cycles messages are stalled in this MB
system.ruby.dir_cntrl0.net2From.avg_buf_msgs     0.001143                       # Average number of messages in buffer
system.ruby.dir_cntrl0.net2From.avg_stall_time  2999.499049                       # Average number of cycles messages are stalled in this MB
system.ruby.dir_cntrl0.reqTo.avg_buf_msgs     0.000473                       # Average number of messages in buffer
system.ruby.dir_cntrl0.reqTo.avg_stall_time  5186.869104                       # Average number of cycles messages are stalled in this MB
system.ruby.dir_cntrl0.requestToMemory.avg_buf_msgs     0.000279                       # Average number of messages in buffer
system.ruby.dir_cntrl0.requestToMemory.avg_stall_time   499.995975                       # Average number of cycles messages are stalled in this MB
system.ruby.dir_cntrl0.respTo.avg_buf_msgs     0.000003                       # Average number of messages in buffer
system.ruby.dir_cntrl0.respTo.avg_stall_time 13558.190281                       # Average number of cycles messages are stalled in this MB
system.ruby.dir_cntrl0.responseFromMemory.avg_buf_msgs     0.000279                       # Average number of messages in buffer
system.ruby.dir_cntrl0.responseFromMemory.avg_stall_time   499.995341                       # Average number of cycles messages are stalled in this MB
system.ruby.dir_cntrl1.net0From.avg_buf_msgs     0.001366                       # Average number of messages in buffer
system.ruby.dir_cntrl1.net0From.avg_stall_time  2999.991630                       # Average number of cycles messages are stalled in this MB
system.ruby.dir_cntrl1.net1From.avg_buf_msgs     0.000304                       # Average number of messages in buffer
system.ruby.dir_cntrl1.net1From.avg_stall_time  3012.833998                       # Average number of cycles messages are stalled in this MB
system.ruby.dir_cntrl1.net2From.avg_buf_msgs     0.001098                       # Average number of messages in buffer
system.ruby.dir_cntrl1.net2From.avg_stall_time  2999.589567                       # Average number of cycles messages are stalled in this MB
system.ruby.dir_cntrl1.reqTo.avg_buf_msgs     0.000449                       # Average number of messages in buffer
system.ruby.dir_cntrl1.reqTo.avg_stall_time  4864.161523                       # Average number of cycles messages are stalled in this MB
system.ruby.dir_cntrl1.requestToMemory.avg_buf_msgs     0.000262                       # Average number of messages in buffer
system.ruby.dir_cntrl1.requestToMemory.avg_stall_time   499.999169                       # Average number of cycles messages are stalled in this MB
system.ruby.dir_cntrl1.respTo.avg_buf_msgs     0.000002                       # Average number of messages in buffer
system.ruby.dir_cntrl1.respTo.avg_stall_time 14444.792943                       # Average number of cycles messages are stalled in this MB
system.ruby.dir_cntrl1.responseFromMemory.avg_buf_msgs     0.000262                       # Average number of messages in buffer
system.ruby.dir_cntrl1.responseFromMemory.avg_stall_time   499.998535                       # Average number of cycles messages are stalled in this MB
system.ruby.dir_cntrl2.net0From.avg_buf_msgs     0.001433                       # Average number of messages in buffer
system.ruby.dir_cntrl2.net0From.avg_stall_time  2999.981350                       # Average number of cycles messages are stalled in this MB
system.ruby.dir_cntrl2.net1From.avg_buf_msgs     0.000501                       # Average number of messages in buffer
system.ruby.dir_cntrl2.net1From.avg_stall_time  3028.045835                       # Average number of cycles messages are stalled in this MB
system.ruby.dir_cntrl2.net2From.avg_buf_msgs     0.001142                       # Average number of messages in buffer
system.ruby.dir_cntrl2.net2From.avg_stall_time  2999.569044                       # Average number of cycles messages are stalled in this MB
system.ruby.dir_cntrl2.reqTo.avg_buf_msgs     0.000467                       # Average number of messages in buffer
system.ruby.dir_cntrl2.reqTo.avg_stall_time  4761.215818                       # Average number of cycles messages are stalled in this MB
system.ruby.dir_cntrl2.requestToMemory.avg_buf_msgs     0.000275                       # Average number of messages in buffer
system.ruby.dir_cntrl2.requestToMemory.avg_stall_time   499.997410                       # Average number of cycles messages are stalled in this MB
system.ruby.dir_cntrl2.respTo.avg_buf_msgs     0.000002                       # Average number of messages in buffer
system.ruby.dir_cntrl2.respTo.avg_stall_time 14447.172828                       # Average number of cycles messages are stalled in this MB
system.ruby.dir_cntrl2.responseFromMemory.avg_buf_msgs     0.000275                       # Average number of messages in buffer
system.ruby.dir_cntrl2.responseFromMemory.avg_stall_time   499.996776                       # Average number of cycles messages are stalled in this MB
system.ruby.dir_cntrl3.net0From.avg_buf_msgs     0.001400                       # Average number of messages in buffer
system.ruby.dir_cntrl3.net0From.avg_stall_time  2999.996244                       # Average number of cycles messages are stalled in this MB
system.ruby.dir_cntrl3.net1From.avg_buf_msgs     0.000512                       # Average number of messages in buffer
system.ruby.dir_cntrl3.net1From.avg_stall_time  3026.704265                       # Average number of cycles messages are stalled in this MB
system.ruby.dir_cntrl3.net2From.avg_buf_msgs     0.001127                       # Average number of messages in buffer
system.ruby.dir_cntrl3.net2From.avg_stall_time  2999.197233                       # Average number of cycles messages are stalled in this MB
system.ruby.dir_cntrl3.reqTo.avg_buf_msgs     0.000457                       # Average number of messages in buffer
system.ruby.dir_cntrl3.reqTo.avg_stall_time  4682.906026                       # Average number of cycles messages are stalled in this MB
system.ruby.dir_cntrl3.requestToMemory.avg_buf_msgs     0.000268                       # Average number of messages in buffer
system.ruby.dir_cntrl3.requestToMemory.avg_stall_time   499.999966                       # Average number of cycles messages are stalled in this MB
system.ruby.dir_cntrl3.respTo.avg_buf_msgs     0.000001                       # Average number of messages in buffer
system.ruby.dir_cntrl3.respTo.avg_stall_time 15407.399824                       # Average number of cycles messages are stalled in this MB
system.ruby.dir_cntrl3.responseFromMemory.avg_buf_msgs     0.000268                       # Average number of messages in buffer
system.ruby.dir_cntrl3.responseFromMemory.avg_stall_time   499.999328                       # Average number of cycles messages are stalled in this MB
system.ruby.dma_cntrl0.cache.demand_accesses            0                       # Number of cache demand accesses
system.ruby.dma_cntrl0.cache.demand_hits            0                       # Number of cache demand hits
system.ruby.dma_cntrl0.cache.demand_misses            0                       # Number of cache demand misses
system.ruby.dma_cntrl0.fully_busy_cycles         4831                       # cycles for which number of transistions == max transitions
system.ruby.dma_cntrl0.mandatoryQueue.avg_buf_msgs     0.002459                       # Average number of messages in buffer
system.ruby.dma_cntrl0.mandatoryQueue.avg_stall_time 162708.945177                       # Average number of cycles messages are stalled in this MB
system.ruby.dma_cntrl0.net0From.avg_buf_msgs     0.000014                       # Average number of messages in buffer
system.ruby.dma_cntrl0.net0From.avg_stall_time  7395.518366                       # Average number of cycles messages are stalled in this MB
system.ruby.dma_cntrl0.net1From.avg_buf_msgs     0.000021                       # Average number of messages in buffer
system.ruby.dma_cntrl0.net1From.avg_stall_time 96333.573618                       # Average number of cycles messages are stalled in this MB
system.ruby.dma_cntrl0.net2From.avg_buf_msgs     0.000000                       # Average number of messages in buffer
system.ruby.dma_cntrl0.net2From.avg_stall_time  7406.544172                       # Average number of cycles messages are stalled in this MB
system.ruby.dma_cntrl0.reqTo.avg_buf_msgs     0.003918                       # Average number of messages in buffer
system.ruby.dma_cntrl0.reqTo.avg_stall_time 13864.613350                       # Average number of cycles messages are stalled in this MB
system.ruby.dma_cntrl0.respFrom.avg_buf_msgs     0.000000                       # Average number of messages in buffer
system.ruby.dma_cntrl0.respFrom.avg_stall_time 13873.026151                       # Average number of cycles messages are stalled in this MB
system.ruby.dma_cntrl0.respTo.avg_buf_msgs     0.000000                       # Average number of messages in buffer
system.ruby.dma_cntrl0.respTo.avg_stall_time   987.447492                       # Average number of cycles messages are stalled in this MB
system.ruby.hit_latency_hist_seqr::bucket_size            1                      
system.ruby.hit_latency_hist_seqr::max_bucket            9                      
system.ruby.hit_latency_hist_seqr::samples    254727094                      
system.ruby.hit_latency_hist_seqr        |   254727094    100.00%    100.00% |           0      0.00%    100.00% |           0      0.00%    100.00% |           0      0.00%    100.00% |           0      0.00%    100.00% |           0      0.00%    100.00% |           0      0.00%    100.00% |           0      0.00%    100.00% |           0      0.00%    100.00% |           0      0.00%    100.00%
system.ruby.hit_latency_hist_seqr::total    254727094                      
system.ruby.io_controller.cache.demand_accesses            0                       # Number of cache demand accesses
system.ruby.io_controller.cache.demand_hits            0                       # Number of cache demand hits
system.ruby.io_controller.cache.demand_misses            0                       # Number of cache demand misses
system.ruby.l1_cntrl0.cache.demand_accesses            0                       # Number of cache demand accesses
system.ruby.l1_cntrl0.cache.demand_hits             0                       # Number of cache demand hits
system.ruby.l1_cntrl0.cache.demand_misses            0                       # Number of cache demand misses
system.ruby.l1_cntrl0.mandatoryQueue.avg_buf_msgs     0.486156                       # Average number of messages in buffer
system.ruby.l1_cntrl0.mandatoryQueue.avg_stall_time   745.327710                       # Average number of cycles messages are stalled in this MB
system.ruby.l1_cntrl0.net0From.avg_buf_msgs     1.956611                       # Average number of messages in buffer
system.ruby.l1_cntrl0.net0From.avg_stall_time 15172.063434                       # Average number of cycles messages are stalled in this MB
system.ruby.l1_cntrl0.net1From.avg_buf_msgs     0.000032                       # Average number of messages in buffer
system.ruby.l1_cntrl0.net1From.avg_stall_time 16466.700190                       # Average number of cycles messages are stalled in this MB
system.ruby.l1_cntrl0.net2From.avg_buf_msgs     0.000196                       # Average number of messages in buffer
system.ruby.l1_cntrl0.net2From.avg_stall_time  6503.373723                       # Average number of cycles messages are stalled in this MB
system.ruby.l1_cntrl0.reqTo.avg_buf_msgs     0.000468                       # Average number of messages in buffer
system.ruby.l1_cntrl0.reqTo.avg_stall_time   499.999989                       # Average number of cycles messages are stalled in this MB
system.ruby.l1_cntrl0.respFrom.avg_buf_msgs     0.000012                       # Average number of messages in buffer
system.ruby.l1_cntrl0.respFrom.avg_stall_time 14781.291489                       # Average number of cycles messages are stalled in this MB
system.ruby.l1_cntrl0.respTo.avg_buf_msgs     0.000014                       # Average number of messages in buffer
system.ruby.l1_cntrl0.respTo.avg_stall_time   609.331235                       # Average number of cycles messages are stalled in this MB
system.ruby.l1_cntrl1.cache.demand_accesses            0                       # Number of cache demand accesses
system.ruby.l1_cntrl1.cache.demand_hits             0                       # Number of cache demand hits
system.ruby.l1_cntrl1.cache.demand_misses            0                       # Number of cache demand misses
system.ruby.l1_cntrl1.fully_busy_cycles             1                       # cycles for which number of transistions == max transitions
system.ruby.l1_cntrl1.mandatoryQueue.avg_buf_msgs     0.485246                       # Average number of messages in buffer
system.ruby.l1_cntrl1.mandatoryQueue.avg_stall_time   679.769339                       # Average number of cycles messages are stalled in this MB
system.ruby.l1_cntrl1.net0From.avg_buf_msgs     0.000184                       # Average number of messages in buffer
system.ruby.l1_cntrl1.net0From.avg_stall_time 14696.402292                       # Average number of cycles messages are stalled in this MB
system.ruby.l1_cntrl1.net1From.avg_buf_msgs     0.000016                       # Average number of messages in buffer
system.ruby.l1_cntrl1.net1From.avg_stall_time 16565.099587                       # Average number of cycles messages are stalled in this MB
system.ruby.l1_cntrl1.net2From.avg_buf_msgs     0.000156                       # Average number of messages in buffer
system.ruby.l1_cntrl1.net2From.avg_stall_time  6618.362420                       # Average number of cycles messages are stalled in this MB
system.ruby.l1_cntrl1.reqTo.avg_buf_msgs     0.000352                       # Average number of messages in buffer
system.ruby.l1_cntrl1.reqTo.avg_stall_time   499.208849                       # Average number of cycles messages are stalled in this MB
system.ruby.l1_cntrl1.respFrom.avg_buf_msgs     0.000005                       # Average number of messages in buffer
system.ruby.l1_cntrl1.respFrom.avg_stall_time 14029.517406                       # Average number of cycles messages are stalled in this MB
system.ruby.l1_cntrl1.respTo.avg_buf_msgs     0.000009                       # Average number of messages in buffer
system.ruby.l1_cntrl1.respTo.avg_stall_time   502.799923                       # Average number of cycles messages are stalled in this MB
system.ruby.l1_cntrl2.cache.demand_accesses            0                       # Number of cache demand accesses
system.ruby.l1_cntrl2.cache.demand_hits             0                       # Number of cache demand hits
system.ruby.l1_cntrl2.cache.demand_misses            0                       # Number of cache demand misses
system.ruby.l1_cntrl2.mandatoryQueue.avg_buf_msgs     0.486933                       # Average number of messages in buffer
system.ruby.l1_cntrl2.mandatoryQueue.avg_stall_time   784.914064                       # Average number of cycles messages are stalled in this MB
system.ruby.l1_cntrl2.net0From.avg_buf_msgs     0.000246                       # Average number of messages in buffer
system.ruby.l1_cntrl2.net0From.avg_stall_time 15762.022855                       # Average number of cycles messages are stalled in this MB
system.ruby.l1_cntrl2.net1From.avg_buf_msgs     0.000035                       # Average number of messages in buffer
system.ruby.l1_cntrl2.net1From.avg_stall_time 16095.376091                       # Average number of cycles messages are stalled in this MB
system.ruby.l1_cntrl2.net2From.avg_buf_msgs     0.000202                       # Average number of messages in buffer
system.ruby.l1_cntrl2.net2From.avg_stall_time  6405.804608                       # Average number of cycles messages are stalled in this MB
system.ruby.l1_cntrl2.reqTo.avg_buf_msgs     0.000482                       # Average number of messages in buffer
system.ruby.l1_cntrl2.reqTo.avg_stall_time   499.999989                       # Average number of cycles messages are stalled in this MB
system.ruby.l1_cntrl2.respFrom.avg_buf_msgs     0.000005                       # Average number of messages in buffer
system.ruby.l1_cntrl2.respFrom.avg_stall_time 14599.462373                       # Average number of cycles messages are stalled in this MB
system.ruby.l1_cntrl2.respTo.avg_buf_msgs     0.000008                       # Average number of messages in buffer
system.ruby.l1_cntrl2.respTo.avg_stall_time   501.299313                       # Average number of cycles messages are stalled in this MB
system.ruby.l1_cntrl3.cache.demand_accesses            0                       # Number of cache demand accesses
system.ruby.l1_cntrl3.cache.demand_hits             0                       # Number of cache demand hits
system.ruby.l1_cntrl3.cache.demand_misses            0                       # Number of cache demand misses
system.ruby.l1_cntrl3.mandatoryQueue.avg_buf_msgs     0.486782                       # Average number of messages in buffer
system.ruby.l1_cntrl3.mandatoryQueue.avg_stall_time   771.015104                       # Average number of cycles messages are stalled in this MB
system.ruby.l1_cntrl3.net0From.avg_buf_msgs     0.000257                       # Average number of messages in buffer
system.ruby.l1_cntrl3.net0From.avg_stall_time 16070.360811                       # Average number of cycles messages are stalled in this MB
system.ruby.l1_cntrl3.net1From.avg_buf_msgs     0.000044                       # Average number of messages in buffer
system.ruby.l1_cntrl3.net1From.avg_stall_time 16579.482513                       # Average number of cycles messages are stalled in this MB
system.ruby.l1_cntrl3.net2From.avg_buf_msgs     0.000202                       # Average number of messages in buffer
system.ruby.l1_cntrl3.net2From.avg_stall_time  6571.937034                       # Average number of cycles messages are stalled in this MB
system.ruby.l1_cntrl3.reqTo.avg_buf_msgs     0.000498                       # Average number of messages in buffer
system.ruby.l1_cntrl3.reqTo.avg_stall_time   499.999989                       # Average number of cycles messages are stalled in this MB
system.ruby.l1_cntrl3.respFrom.avg_buf_msgs     0.000004                       # Average number of messages in buffer
system.ruby.l1_cntrl3.respFrom.avg_stall_time 14917.036409                       # Average number of cycles messages are stalled in this MB
system.ruby.l1_cntrl3.respTo.avg_buf_msgs     0.000011                       # Average number of messages in buffer
system.ruby.l1_cntrl3.respTo.avg_stall_time   507.630024                       # Average number of cycles messages are stalled in this MB
system.ruby.latency_hist_seqr::bucket_size            1                      
system.ruby.latency_hist_seqr::max_bucket            9                      
system.ruby.latency_hist_seqr::samples      254851527                      
system.ruby.latency_hist_seqr            |   254851527    100.00%    100.00% |           0      0.00%    100.00% |           0      0.00%    100.00% |           0      0.00%    100.00% |           0      0.00%    100.00% |           0      0.00%    100.00% |           0      0.00%    100.00% |           0      0.00%    100.00% |           0      0.00%    100.00% |           0      0.00%    100.00%
system.ruby.latency_hist_seqr::total        254851527                      
system.ruby.miss_latency_hist_seqr::bucket_size            1                      
system.ruby.miss_latency_hist_seqr::max_bucket            9                      
system.ruby.miss_latency_hist_seqr::samples       124433                      
system.ruby.miss_latency_hist_seqr       |      124433    100.00%    100.00% |           0      0.00%    100.00% |           0      0.00%    100.00% |           0      0.00%    100.00% |           0      0.00%    100.00% |           0      0.00%    100.00% |           0      0.00%    100.00% |           0      0.00%    100.00% |           0      0.00%    100.00% |           0      0.00%    100.00%
system.ruby.miss_latency_hist_seqr::total       124433                      
system.ruby.network.average_flit_latency    18.641211                      
system.ruby.network.average_flit_network_latency    12.384518                      
system.ruby.network.average_flit_queueing_latency     6.256692                      
system.ruby.network.average_flit_vnet_latency |   14.663861                       |   21.061037                       |    5.025911                       |   15.650939                       |    7.762387                      
system.ruby.network.average_flit_vqueue_latency |    6.000009                       |   11.099361                       |           6                       |    1.228186                       |    5.623481                      
system.ruby.network.average_hops             1.010959                      
system.ruby.network.average_packet_latency    15.976665                      
system.ruby.network.average_packet_network_latency    11.239899                      
system.ruby.network.average_packet_queueing_latency     4.736766                      
system.ruby.network.average_packet_vnet_latency |   21.970886                       |   31.089922                       |    5.025911                       |   25.668655                       |    6.417849                      
system.ruby.network.average_packet_vqueue_latency |    6.000040                       |   11.099361                       |           6                       |    1.228186                       |    3.116941                      
system.ruby.network.avg_link_utilization     0.024553                      
system.ruby.network.avg_vc_load          |    0.009298     37.87%     37.87% |    0.001045      4.26%     42.12% |    0.001034      4.21%     46.33% |    0.001035      4.21%     50.55% |    0.001538      6.27%     56.81% |    0.000241      0.98%     57.79% |    0.000233      0.95%     58.74% |    0.000229      0.93%     59.68% |    0.001702      6.93%     66.61% |    0.000191      0.78%     67.38% |    0.000189      0.77%     68.16% |    0.000189      0.77%     68.93% |    0.000382      1.55%     70.48% |    0.000084      0.34%     70.82% |    0.000053      0.21%     71.04% |    0.000043      0.17%     71.21% |    0.005262     21.43%     92.64% |    0.000626      2.55%     95.19% |    0.000593      2.42%     97.61% |    0.000588      2.39%    100.00%
system.ruby.network.avg_vc_load::total       0.024553                      
system.ruby.network.ext_in_link_utilization      1079951                      
system.ruby.network.ext_out_link_utilization      1079951                      
system.ruby.network.flit_network_latency |     8025091                       |     2075144                       |      503546                       |      354259                       |     2416633                      
system.ruby.network.flit_queueing_latency |     3283625                       |     1093620                       |      601140                       |       27800                       |     1750736                      
system.ruby.network.flits_injected       |      547270     50.68%     50.68% |       98530      9.12%     59.80% |      100190      9.28%     69.08% |       22635      2.10%     71.17% |      311326     28.83%    100.00%
system.ruby.network.flits_injected::total      1079951                      
system.ruby.network.flits_received       |      547270     50.68%     50.68% |       98530      9.12%     59.80% |      100190      9.28%     69.08% |       22635      2.10%     71.17% |      311326     28.83%    100.00%
system.ruby.network.flits_received::total      1079951                      
system.ruby.network.int_link_utilization      1091786                      
system.ruby.network.packet_network_latency |     2738583                       |      612658                       |      503546                       |      116202                       |     1559165                      
system.ruby.network.packet_queueing_latency |      747881                       |      218724                       |      601140                       |        5560                       |      757236                      
system.ruby.network.packets_injected     |      124646     25.33%     25.33% |       19706      4.01%     29.34% |      100190     20.36%     49.70% |        4527      0.92%     50.62% |      242942     49.38%    100.00%
system.ruby.network.packets_injected::total       492011                      
system.ruby.network.packets_received     |      124646     25.33%     25.33% |       19706      4.01%     29.34% |      100190     20.36%     49.70% |        4527      0.92%     50.62% |      242942     49.38%    100.00%
system.ruby.network.packets_received::total       492011                      
system.ruby.network.routers0.buffer_reads       570307                      
system.ruby.network.routers0.buffer_writes       570307                      
system.ruby.network.routers0.crossbar_activity       570307                      
system.ruby.network.routers0.sw_input_arbiter_activity       577108                      
system.ruby.network.routers0.sw_output_arbiter_activity       570307                      
system.ruby.network.routers1.buffer_reads       492251                      
system.ruby.network.routers1.buffer_writes       492251                      
system.ruby.network.routers1.crossbar_activity       492251                      
system.ruby.network.routers1.sw_input_arbiter_activity       492553                      
system.ruby.network.routers1.sw_output_arbiter_activity       492251                      
system.ruby.network.routers2.buffer_reads       561364                      
system.ruby.network.routers2.buffer_writes       561364                      
system.ruby.network.routers2.crossbar_activity       561364                      
system.ruby.network.routers2.sw_input_arbiter_activity       563190                      
system.ruby.network.routers2.sw_output_arbiter_activity       561364                      
system.ruby.network.routers3.buffer_reads       547815                      
system.ruby.network.routers3.buffer_writes       547815                      
system.ruby.network.routers3.crossbar_activity       547815                      
system.ruby.network.routers3.sw_input_arbiter_activity       548046                      
system.ruby.network.routers3.sw_output_arbiter_activity       547815                      
system.ruby.outstanding_req_hist_seqr::bucket_size            1                      
system.ruby.outstanding_req_hist_seqr::max_bucket            9                      
system.ruby.outstanding_req_hist_seqr::samples    254851527                      
system.ruby.outstanding_req_hist_seqr::mean     1.000000                      
system.ruby.outstanding_req_hist_seqr::gmean     1.000000                      
system.ruby.outstanding_req_hist_seqr::stdev     0.000226                      
system.ruby.outstanding_req_hist_seqr    |           0      0.00%      0.00% |   254851514    100.00%    100.00% |          13      0.00%    100.00% |           0      0.00%    100.00% |           0      0.00%    100.00% |           0      0.00%    100.00% |           0      0.00%    100.00% |           0      0.00%    100.00% |           0      0.00%    100.00% |           0      0.00%    100.00%
system.ruby.outstanding_req_hist_seqr::total    254851527                      
system.switch_cpus0.Branches                  2572338                       # Number of branches fetched
system.switch_cpus0.committedInsts           34211396                       # Number of instructions committed
system.switch_cpus0.committedOps             63301380                       # Number of ops (including micro ops) committed
system.switch_cpus0.dtb.rdAccesses            9689021                       # TLB accesses on read requests
system.switch_cpus0.dtb.rdMisses                 2741                       # TLB misses on read requests
system.switch_cpus0.dtb.wrAccesses            2103625                       # TLB accesses on write requests
system.switch_cpus0.dtb.wrMisses                  481                       # TLB misses on write requests
system.switch_cpus0.idle_fraction            0.010204                       # Percentage of idle cycles
system.switch_cpus0.itb.rdAccesses                  0                       # TLB accesses on read requests
system.switch_cpus0.itb.rdMisses                    0                       # TLB misses on read requests
system.switch_cpus0.itb.wrAccesses           51875583                       # TLB accesses on write requests
system.switch_cpus0.itb.wrMisses                  399                       # TLB misses on write requests
system.switch_cpus0.kern.inst.arm                   0                       # number of arm instructions executed
system.switch_cpus0.kern.inst.quiesce               0                       # number of quiesce instructions executed
system.switch_cpus0.not_idle_fraction        0.989796                       # Percentage of non-idle cycles
system.switch_cpus0.numCycles               132349720                       # number of cpu cycles simulated
system.switch_cpus0.numWorkItemsCompleted            0                       # number of work items this cpu completed
system.switch_cpus0.numWorkItemsStarted             0                       # number of work items this cpu started
system.switch_cpus0.num_busy_cycles      130999258.934518                       # Number of busy cycles
system.switch_cpus0.num_cc_register_reads      9096233                       # number of times the CC registers were read
system.switch_cpus0.num_cc_register_writes      7212879                       # number of times the CC registers were written
system.switch_cpus0.num_conditional_control_insts      1252138                       # number of instructions that are conditional controls
system.switch_cpus0.num_fp_alu_accesses      41269733                       # Number of float alu accesses
system.switch_cpus0.num_fp_insts             41269733                       # number of float instructions
system.switch_cpus0.num_fp_register_reads     63740489                       # number of times the floating registers were read
system.switch_cpus0.num_fp_register_writes     38574841                       # number of times the floating registers were written
system.switch_cpus0.num_func_calls             844609                       # number of times a function call or return occured
system.switch_cpus0.num_idle_cycles      1350461.065482                       # Number of idle cycles
system.switch_cpus0.num_int_alu_accesses     32107436                       # Number of integer alu accesses
system.switch_cpus0.num_int_insts            32107436                       # number of integer instructions
system.switch_cpus0.num_int_register_reads     63015359                       # number of times the integer registers were read
system.switch_cpus0.num_int_register_writes     19741126                       # number of times the integer registers were written
system.switch_cpus0.num_load_insts            9686280                       # Number of load instructions
system.switch_cpus0.num_mem_refs             11789432                       # number of memory refs
system.switch_cpus0.num_store_insts           2103152                       # Number of store instructions
system.switch_cpus0.num_vec_alu_accesses            0                       # Number of vector alu accesses
system.switch_cpus0.num_vec_insts                   0                       # number of vector instructions
system.switch_cpus0.num_vec_register_reads            0                       # number of times the vector registers were read
system.switch_cpus0.num_vec_register_writes            0                       # number of times the vector registers were written
system.switch_cpus0.op_class::No_OpClass        13506      0.02%      0.02% # Class of executed instruction
system.switch_cpus0.op_class::IntAlu         22809781     36.03%     36.05% # Class of executed instruction
system.switch_cpus0.op_class::IntMult            1696      0.00%     36.06% # Class of executed instruction
system.switch_cpus0.op_class::IntDiv             3964      0.01%     36.06% # Class of executed instruction
system.switch_cpus0.op_class::FloatAdd        5728809      9.05%     45.11% # Class of executed instruction
system.switch_cpus0.op_class::FloatCmp              0      0.00%     45.11% # Class of executed instruction
system.switch_cpus0.op_class::FloatCvt             96      0.00%     45.11% # Class of executed instruction
system.switch_cpus0.op_class::FloatMult             0      0.00%     45.11% # Class of executed instruction
system.switch_cpus0.op_class::FloatMultAcc            0      0.00%     45.11% # Class of executed instruction
system.switch_cpus0.op_class::FloatDiv              0      0.00%     45.11% # Class of executed instruction
system.switch_cpus0.op_class::FloatMisc             0      0.00%     45.11% # Class of executed instruction
[...]
system.mem_ctrls1.llc.ReadReq_avg_miss_latency::total 84248.226485                       # average ReadReq miss latency
system.mem_ctrls1.llc.ReadReq_mshr_misses::.ruby.dir_cntrl1         3232                       # number of ReadReq MSHR misses
system.mem_ctrls1.llc.ReadReq_mshr_misses::total         3232                       # number of ReadReq MSHR misses
system.mem_ctrls1.llc.ReadReq_mshr_miss_latency::.ruby.dir_cntrl1    206377018                       # number of ReadReq MSHR miss cycles
system.mem_ctrls1.llc.ReadReq_mshr_miss_latency::total    206377018                       # number of ReadReq MSHR miss cycles
system.mem_ctrls1.llc.ReadReq_mshr_miss_rate::.ruby.dir_cntrl1     0.105988                       # mshr miss rate for ReadReq accesses
system.mem_ctrls1.llc.ReadReq_mshr_miss_rate::total     0.105988                       # mshr miss rate for ReadReq accesses
system.mem_ctrls1.llc.ReadReq_avg_mshr_miss_latency::.ruby.dir_cntrl1 63854.275371                       # average ReadReq mshr miss latency
system.mem_ctrls1.llc.ReadReq_avg_mshr_miss_latency::total 63854.275371                       # average ReadReq mshr miss latency
system.mem_ctrls1.llc.WriteReq_hits::.ruby.dir_cntrl1         4202                       # number of WriteReq hits
system.mem_ctrls1.llc.WriteReq_hits::total         4202                       # number of WriteReq hits
system.mem_ctrls1.llc.WriteReq_accesses::.ruby.dir_cntrl1         4202                       # number of WriteReq accesses(hits+misses)
system.mem_ctrls1.llc.WriteReq_accesses::total         4202                       # number of WriteReq accesses(hits+misses)
system.mem_ctrls1.llc.power_state.pwrStateResidencyTicks::UNDEFINED 99348896152001                       # Cumulative time (in ticks) in various power states
system.mem_ctrls1.llc.tags.tagsinuse      3063.914903                       # Cycle average of tags in use
system.mem_ctrls1.llc.tags.total_refs               0                       # Total number of references to valid blocks.
system.mem_ctrls1.llc.tags.sampled_refs             0                       # Sample count of references to valid blocks.
system.mem_ctrls1.llc.tags.avg_refs               nan                       # Average number of references to valid blocks.
system.mem_ctrls1.llc.tags.warmup_cycle  99282677268500                       # Cycle when the warmup percentage was hit.
system.mem_ctrls1.llc.tags.occ_blocks::.ruby.dir_cntrl1  3063.914903                       # Average occupied blocks per requestor
system.mem_ctrls1.llc.tags.occ_percent::.ruby.dir_cntrl1     0.011688                       # Average percentage of cache occupancy
system.mem_ctrls1.llc.tags.occ_percent::total     0.011688                       # Average percentage of cache occupancy
system.mem_ctrls1.llc.tags.occ_task_id_blocks::1024         3232                       # Occupied blocks per task id
system.mem_ctrls1.llc.tags.age_task_id_blocks_1024::0            4                       # Occupied blocks per task id
system.mem_ctrls1.llc.tags.age_task_id_blocks_1024::1            8                       # Occupied blocks per task id
system.mem_ctrls1.llc.tags.age_task_id_blocks_1024::2          126                       # Occupied blocks per task id
system.mem_ctrls1.llc.tags.age_task_id_blocks_1024::4         3094                       # Occupied blocks per task id
system.mem_ctrls1.llc.tags.occ_task_id_percent::1024     0.012329                       # Percentage of cache occupancy per task id
system.mem_ctrls1.llc.tags.tag_accesses        558368                       # Number of tag accesses
system.mem_ctrls1.llc.tags.data_accesses        34696                       # Number of data accesses
system.mem_ctrls1.llc.tags.power_state.pwrStateResidencyTicks::UNDEFINED 99348896152001                       # Cumulative time (in ticks) in various power states
system.mem_ctrls1.rank1.actEnergy             3898440                       # Energy for activate commands per rank (pJ)
system.mem_ctrls1.rank1.preEnergy             2072070                       # Energy for precharge commands per rank (pJ)
system.mem_ctrls1.rank1.readEnergy            9796080                       # Energy for read commands per rank (pJ)
system.mem_ctrls1.rank1.writeEnergy                 0                       # Energy for write commands per rank (pJ)
system.mem_ctrls1.rank1.refreshEnergy    5226898560.000001                       # Energy for refresh commands per rank (pJ)
system.mem_ctrls1.rank1.actBackEnergy      1410667350                       # Energy for active background per rank (pJ)
system.mem_ctrls1.rank1.preBackEnergy     24240011040                       # Energy for precharge background per rank (pJ)
system.mem_ctrls1.rank1.actPowerDownEnergy            0                       # Energy for active power-down per rank (pJ)
system.mem_ctrls1.rank1.prePowerDownEnergy            0                       # Energy for precharge power-down per rank (pJ)
system.mem_ctrls1.rank1.selfRefreshEnergy            0                       # Energy for self refresh per rank (pJ)
system.mem_ctrls1.rank1.totalEnergy       30893343540                       # Total energy per rank (pJ)
system.mem_ctrls1.rank1.averagePower       466.532524                       # Core power per rank (mW)
system.mem_ctrls1.rank1.totalIdleTime               0                       # Total Idle time Per DRAM Rank
system.mem_ctrls1.rank1.memoryStateTime::IDLE  63005602751                       # Time in different power states
system.mem_ctrls1.rank1.memoryStateTime::REF   2211040000                       # Time in different power states
system.mem_ctrls1.rank1.memoryStateTime::SREF            0                       # Time in different power states
system.mem_ctrls1.rank1.memoryStateTime::PRE_PDN            0                       # Time in different power states
system.mem_ctrls1.rank1.memoryStateTime::ACT   1002413750                       # Time in different power states
system.mem_ctrls1.rank1.memoryStateTime::ACT_PDN            0                       # Time in different power states
system.mem_ctrls1.rank0.actEnergy             5233620                       # Energy for activate commands per rank (pJ)
system.mem_ctrls1.rank0.preEnergy             2781735                       # Energy for precharge commands per rank (pJ)
system.mem_ctrls1.rank0.readEnergy           13280400                       # Energy for read commands per rank (pJ)
system.mem_ctrls1.rank0.writeEnergy                 0                       # Energy for write commands per rank (pJ)
system.mem_ctrls1.rank0.refreshEnergy    5226898560.000001                       # Energy for refresh commands per rank (pJ)
system.mem_ctrls1.rank0.actBackEnergy      1476681900                       # Energy for active background per rank (pJ)
system.mem_ctrls1.rank0.preBackEnergy     24184549920                       # Energy for precharge background per rank (pJ)
system.mem_ctrls1.rank0.actPowerDownEnergy            0                       # Energy for active power-down per rank (pJ)
system.mem_ctrls1.rank0.prePowerDownEnergy            0                       # Energy for precharge power-down per rank (pJ)
system.mem_ctrls1.rank0.selfRefreshEnergy            0                       # Energy for self refresh per rank (pJ)
system.mem_ctrls1.rank0.totalEnergy       30909426135                       # Total energy per rank (pJ)
system.mem_ctrls1.rank0.averagePower       466.775393                       # Core power per rank (mW)
system.mem_ctrls1.rank0.totalIdleTime               0                       # Total Idle time Per DRAM Rank
system.mem_ctrls1.rank0.memoryStateTime::IDLE  62860648001                       # Time in different power states
system.mem_ctrls1.rank0.memoryStateTime::REF   2211040000                       # Time in different power states
system.mem_ctrls1.rank0.memoryStateTime::SREF            0                       # Time in different power states
system.mem_ctrls1.rank0.memoryStateTime::PRE_PDN            0                       # Time in different power states
system.mem_ctrls1.rank0.memoryStateTime::ACT   1147368500                       # Time in different power states
system.mem_ctrls1.rank0.memoryStateTime::ACT_PDN            0                       # Time in different power states
system.mem_ctrls1.power_state.pwrStateResidencyTicks::UNDEFINED 99348896152001                       # Cumulative time (in ticks) in various power states
system.cpu_voltage_domain.voltage                   1                       # Voltage in Volts
system.iobus.trans_dist::ReadReq                  291                       # Transaction distribution
system.iobus.trans_dist::ReadResp                 291                       # Transaction distribution
system.iobus.trans_dist::WriteReq                 542                       # Transaction distribution
system.iobus.trans_dist::WriteResp                542                       # Transaction distribution
system.iobus.pkt_count_system.pc.south_bridge.io_apic.int_master::system.ruby.l1_cntrl1.sequencer.pio-slave-port          176                       # Packet count per connected master and slave (bytes)
system.iobus.pkt_count_system.pc.south_bridge.io_apic.int_master::total          176                       # Packet count per connected master and slave (bytes)
system.iobus.pkt_count_system.ruby.l1_cntrl0.sequencer.mem-master-port::system.pc.com_1.pio            2                       # Packet count per connected master and slave (bytes)
system.iobus.pkt_count_system.ruby.l1_cntrl0.sequencer.mem-master-port::system.ruby.l1_cntrl0.sequencer.pio-slave-port          152                       # Packet count per connected master and slave (bytes)
system.iobus.pkt_count_system.ruby.l1_cntrl0.sequencer.mem-master-port::system.ruby.l1_cntrl1.sequencer.pio-slave-port            2                       # Packet count per connected master and slave (bytes)
system.iobus.pkt_count_system.ruby.l1_cntrl0.sequencer.mem-master-port::total          156                       # Packet count per connected master and slave (bytes)
system.iobus.pkt_count_system.ruby.l1_cntrl1.sequencer.mem-master-port::system.pc.south_bridge.ide.pio          104                       # Packet count per connected master and slave (bytes)
system.iobus.pkt_count_system.ruby.l1_cntrl1.sequencer.mem-master-port::system.pc.com_1.pio          678                       # Packet count per connected master and slave (bytes)
system.iobus.pkt_count_system.ruby.l1_cntrl1.sequencer.mem-master-port::system.ruby.l1_cntrl1.sequencer.pio-slave-port          158                       # Packet count per connected master and slave (bytes)
system.iobus.pkt_count_system.ruby.l1_cntrl1.sequencer.mem-master-port::system.ruby.l1_cntrl3.sequencer.pio-slave-port            4                       # Packet count per connected master and slave (bytes)
system.iobus.pkt_count_system.ruby.l1_cntrl1.sequencer.mem-master-port::total          944                       # Packet count per connected master and slave (bytes)
system.iobus.pkt_count_system.ruby.l1_cntrl2.sequencer.mem-master-port::system.ruby.l1_cntrl0.sequencer.pio-slave-port            4                       # Packet count per connected master and slave (bytes)
system.iobus.pkt_count_system.ruby.l1_cntrl2.sequencer.mem-master-port::system.ruby.l1_cntrl1.sequencer.pio-slave-port            2                       # Packet count per connected master and slave (bytes)
system.iobus.pkt_count_system.ruby.l1_cntrl2.sequencer.mem-master-port::system.ruby.l1_cntrl2.sequencer.pio-slave-port          162                       # Packet count per connected master and slave (bytes)
system.iobus.pkt_count_system.ruby.l1_cntrl2.sequencer.mem-master-port::system.ruby.l1_cntrl3.sequencer.pio-slave-port            2                       # Packet count per connected master and slave (bytes)
system.iobus.pkt_count_system.ruby.l1_cntrl2.sequencer.mem-master-port::total          170                       # Packet count per connected master and slave (bytes)
system.iobus.pkt_count_system.ruby.l1_cntrl3.sequencer.mem-master-port::system.pc.south_bridge.ide.pio           34                       # Packet count per connected master and slave (bytes)
system.iobus.pkt_count_system.ruby.l1_cntrl3.sequencer.mem-master-port::system.ruby.l1_cntrl0.sequencer.pio-slave-port            8                       # Packet count per connected master and slave (bytes)
system.iobus.pkt_count_system.ruby.l1_cntrl3.sequencer.mem-master-port::system.ruby.l1_cntrl2.sequencer.pio-slave-port            4                       # Packet count per connected master and slave (bytes)
system.iobus.pkt_count_system.ruby.l1_cntrl3.sequencer.mem-master-port::system.ruby.l1_cntrl3.sequencer.pio-slave-port          174                       # Packet count per connected master and slave (bytes)
system.iobus.pkt_count_system.ruby.l1_cntrl3.sequencer.mem-master-port::total          220                       # Packet count per connected master and slave (bytes)
system.iobus.pkt_count::total                    1666                       # Packet count per connected master and slave (bytes)
system.iobus.pkt_size_system.pc.south_bridge.io_apic.int_master::system.ruby.l1_cntrl1.sequencer.pio-slave-port          352                       # Cumulative packet size per connected master and slave (bytes)
system.iobus.pkt_size_system.pc.south_bridge.io_apic.int_master::total          352                       # Cumulative packet size per connected master and slave (bytes)
system.iobus.pkt_size_system.ruby.l1_cntrl0.sequencer.mem-master-port::system.pc.com_1.pio            1                       # Cumulative packet size per connected master and slave (bytes)
system.iobus.pkt_size_system.ruby.l1_cntrl0.sequencer.mem-master-port::system.ruby.l1_cntrl0.sequencer.pio-slave-port          304                       # Cumulative packet size per connected master and slave (bytes)
system.iobus.pkt_size_system.ruby.l1_cntrl0.sequencer.mem-master-port::system.ruby.l1_cntrl1.sequencer.pio-slave-port            4                       # Cumulative packet size per connected master and slave (bytes)
system.iobus.pkt_size_system.ruby.l1_cntrl0.sequencer.mem-master-port::total          309                       # Cumulative packet size per connected master and slave (bytes)
system.iobus.pkt_size_system.ruby.l1_cntrl1.sequencer.mem-master-port::system.pc.south_bridge.ide.pio           58                       # Cumulative packet size per connected master and slave (bytes)
system.iobus.pkt_size_system.ruby.l1_cntrl1.sequencer.mem-master-port::system.pc.com_1.pio          339                       # Cumulative packet size per connected master and slave (bytes)
system.iobus.pkt_size_system.ruby.l1_cntrl1.sequencer.mem-master-port::system.ruby.l1_cntrl1.sequencer.pio-slave-port          316                       # Cumulative packet size per connected master and slave (bytes)
system.iobus.pkt_size_system.ruby.l1_cntrl1.sequencer.mem-master-port::system.ruby.l1_cntrl3.sequencer.pio-slave-port            8                       # Cumulative packet size per connected master and slave (bytes)
system.iobus.pkt_size_system.ruby.l1_cntrl1.sequencer.mem-master-port::total          721                       # Cumulative packet size per connected master and slave (bytes)
system.iobus.pkt_size_system.ruby.l1_cntrl2.sequencer.mem-master-port::system.ruby.l1_cntrl0.sequencer.pio-slave-port            8                       # Cumulative packet size per connected master and slave (bytes)
system.iobus.pkt_size_system.ruby.l1_cntrl2.sequencer.mem-master-port::system.ruby.l1_cntrl1.sequencer.pio-slave-port            4                       # Cumulative packet size per connected master and slave (bytes)
system.iobus.pkt_size_system.ruby.l1_cntrl2.sequencer.mem-master-port::system.ruby.l1_cntrl2.sequencer.pio-slave-port          324                       # Cumulative packet size per connected master and slave (bytes)
system.iobus.pkt_size_system.ruby.l1_cntrl2.sequencer.mem-master-port::system.ruby.l1_cntrl3.sequencer.pio-slave-port            4                       # Cumulative packet size per connected master and slave (bytes)
system.iobus.pkt_size_system.ruby.l1_cntrl2.sequencer.mem-master-port::total          340                       # Cumulative packet size per connected master and slave (bytes)
system.iobus.pkt_size_system.ruby.l1_cntrl3.sequencer.mem-master-port::system.pc.south_bridge.ide.pio           20                       # Cumulative packet size per connected master and slave (bytes)
system.iobus.pkt_size_system.ruby.l1_cntrl3.sequencer.mem-master-port::system.ruby.l1_cntrl0.sequencer.pio-slave-port           16                       # Cumulative packet size per connected master and slave (bytes)
system.iobus.pkt_size_system.ruby.l1_cntrl3.sequencer.mem-master-port::system.ruby.l1_cntrl2.sequencer.pio-slave-port            8                       # Cumulative packet size per connected master and slave (bytes)
system.iobus.pkt_size_system.ruby.l1_cntrl3.sequencer.mem-master-port::system.ruby.l1_cntrl3.sequencer.pio-slave-port          348                       # Cumulative packet size per connected master and slave (bytes)
system.iobus.pkt_size_system.ruby.l1_cntrl3.sequencer.mem-master-port::total          392                       # Cumulative packet size per connected master and slave (bytes)
system.iobus.pkt_size::total                     2114                       # Cumulative packet size per connected master and slave (bytes)
system.iobus.reqLayer2.occupancy               114000                       # Layer occupancy (ticks)
system.iobus.reqLayer2.utilization                0.0                       # Layer utilization (%)
system.iobus.power_state.pwrStateResidencyTicks::UNDEFINED 99348896152001                       # Cumulative time (in ticks) in various power states
system.iobus.reqLayer19.occupancy              198429                       # Layer occupancy (ticks)
system.iobus.reqLayer19.utilization               0.0                       # Layer utilization (%)
system.iobus.reqLayer17.occupancy              202428                       # Layer occupancy (ticks)
system.iobus.reqLayer17.utilization               0.0                       # Layer utilization (%)
system.iobus.reqLayer12.occupancy              426500                       # Layer occupancy (ticks)
system.iobus.reqLayer12.utilization               0.0                       # Layer utilization (%)
system.iobus.reqLayer18.occupancy              372431                       # Layer occupancy (ticks)
system.iobus.reqLayer18.utilization               0.0                       # Layer utilization (%)
system.iobus.respLayer9.occupancy              163500                       # Layer occupancy (ticks)
system.iobus.respLayer9.utilization               0.0                       # Layer utilization (%)
system.iobus.respLayer5.occupancy              787500                       # Layer occupancy (ticks)
system.iobus.respLayer5.utilization               0.0                       # Layer utilization (%)
system.iobus.respLayer7.occupancy              129500                       # Layer occupancy (ticks)
system.iobus.respLayer7.utilization               0.0                       # Layer utilization (%)
system.iobus.respLayer0.occupancy              132497                       # Layer occupancy (ticks)
system.iobus.respLayer0.utilization               0.0                       # Layer utilization (%)
system.iobus.respLayer3.occupancy              117000                       # Layer occupancy (ticks)
system.iobus.respLayer3.utilization               0.0                       # Layer utilization (%)
system.iobus.reqLayer20.occupancy              210930                       # Layer occupancy (ticks)
system.iobus.reqLayer20.utilization               0.0                       # Layer utilization (%)

---------- End Simulation Statistics   ----------
