
---------- Begin Simulation Statistics ----------
final_tick                               102599423957000                       # Number of ticks from beginning of simulation (restored from checkpoints and never reset)
host_inst_rate                               94525028                       # Simulator instruction rate (inst/s)
host_mem_usage                                1219576                       # Number of bytes of host memory used
host_op_rate                                 94524865                       # Simulator op (including micro ops) rate (op/s)
host_seconds                                    52.13                       # Real time elapsed on the host
host_tick_rate                           1968056535623                       # Simulator tick rate (ticks/s)
sim_freq                                 1000000000000                       # Frequency of simulated ticks
sim_insts                                  4927802759                       # Number of instructions simulated
sim_ops                                    4927802759                       # Number of ops (including micro ops) simulated
sim_seconds                                102.599424                       # Number of seconds simulated
sim_ticks                                102599423957000                       # Number of ticks simulated
system.cpu0.committedInsts                 2040040039                       # Number of instructions committed
system.cpu0.dtb.rdAccesses                          0                       # TLB accesses on read requests
system.cpu0.dtb.rdMisses                            0                       # TLB misses on read requests
system.cpu0.dtb.wrAccesses                          0                       # TLB accesses on write requests
system.cpu0.dtb.wrMisses                            0                       # TLB misses on write requests
system.cpu0.itb.rdAccesses                          0                       # TLB accesses on read requests
system.cpu0.itb.rdMisses                            0                       # TLB misses on read requests
system.cpu0.itb.wrAccesses                          0                       # TLB accesses on write requests
system.cpu0.itb.wrMisses                            0                       # TLB misses on write requests
system.cpu0.kern.inst.arm                           0                       # number of arm instructions executed
system.cpu0.kern.inst.quiesce                       0                       # number of quiesce instructions executed
system.cpu0.numCoalescedMMIO                        0                       # number of coalesced memory mapped IO requests
system.cpu0.numCycles                    205198712188                       # number of cpu cycles simulated
system.cpu0.numExitSignal                      277230                       # exits due to signal delivery
system.cpu0.numHalt                             97941                       # number of VM exits due to wait for interrupt instructions
system.cpu0.numHypercalls                           0                       # number of hypercalls
system.cpu0.numIO                               25733                       # number of VM exits due to legacy IO
system.cpu0.numInterrupts                      104498                       # number of interrupts delivered
system.cpu0.numMMIO                            109559                       # number of VM exits due to memory mapped IO
system.cpu0.numVMExits                         512836                       # total number of KVM exits
system.cpu0.numVMHalfEntries                        4                       # number of KVM entries to finalize pending operations
system.cpu0.numWorkItemsCompleted                   0                       # number of work items this cpu completed
system.cpu0.numWorkItemsStarted                     0                       # number of work items this cpu started
system.cpu1.committedInsts                  883494173                       # Number of instructions committed
system.cpu1.dtb.rdAccesses                          0                       # TLB accesses on read requests
system.cpu1.dtb.rdMisses                            0                       # TLB misses on read requests
system.cpu1.dtb.wrAccesses                          0                       # TLB accesses on write requests
system.cpu1.dtb.wrMisses                            0                       # TLB misses on write requests
system.cpu1.itb.rdAccesses                          0                       # TLB accesses on read requests
system.cpu1.itb.rdMisses                            0                       # TLB misses on read requests
system.cpu1.itb.wrAccesses                          0                       # TLB accesses on write requests
system.cpu1.itb.wrMisses                            0                       # TLB misses on write requests
system.cpu1.kern.inst.arm                           0                       # number of arm instructions executed
system.cpu1.kern.inst.quiesce                       0                       # number of quiesce instructions executed
system.cpu1.numCoalescedMMIO                        0                       # number of coalesced memory mapped IO requests
system.cpu1.numCycles                    205197770900                       # number of cpu cycles simulated
system.cpu1.numExitSignal                      289554                       # exits due to signal delivery
system.cpu1.numHalt                             93777                       # number of VM exits due to wait for interrupt instructions
system.cpu1.numHypercalls                           0                       # number of hypercalls
system.cpu1.numIO                              133419                       # number of VM exits due to legacy IO
system.cpu1.numInterrupts                      100225                       # number of interrupts delivered
system.cpu1.numMMIO                            128052                       # number of VM exits due to memory mapped IO
system.cpu1.numVMExits                         648805                       # total number of KVM exits
system.cpu1.numVMHalfEntries                       44                       # number of KVM entries to finalize pending operations
system.cpu1.numWorkItemsCompleted                   0                       # number of work items this cpu completed
system.cpu1.numWorkItemsStarted                     0                       # number of work items this cpu started
system.cpu2.committedInsts                 1099399983                       # Number of instructions committed
system.cpu2.dtb.rdAccesses                          0                       # TLB accesses on read requests
system.cpu2.dtb.rdMisses                            0                       # TLB misses on read requests
system.cpu2.dtb.wrAccesses                          0                       # TLB accesses on write requests
system.cpu2.dtb.wrMisses                            0                       # TLB misses on write requests
system.cpu2.itb.rdAccesses                          0                       # TLB accesses on read requests
system.cpu2.itb.rdMisses                            0                       # TLB misses on read requests
system.cpu2.itb.wrAccesses                          0                       # TLB accesses on write requests
system.cpu2.itb.wrMisses                            0                       # TLB misses on write requests
system.cpu2.kern.inst.arm                           0                       # number of arm instructions executed
system.cpu2.kern.inst.quiesce                       0                       # number of quiesce instructions executed
system.cpu2.numCoalescedMMIO                        0                       # number of coalesced memory mapped IO requests
system.cpu2.numCycles                    205197076010                       # number of cpu cycles simulated
system.cpu2.numExitSignal                      328575                       # exits due to signal delivery
system.cpu2.numHalt                            101071                       # number of VM exits due to wait for interrupt instructions
system.cpu2.numHypercalls                           0                       # number of hypercalls
system.cpu2.numIO                                9761                       # number of VM exits due to legacy IO
system.cpu2.numInterrupts                      109912                       # number of interrupts delivered
system.cpu2.numMMIO                            114971                       # number of VM exits due to memory mapped IO
system.cpu2.numVMExits                         559275                       # total number of KVM exits
system.cpu2.numVMHalfEntries                       21                       # number of KVM entries to finalize pending operations
system.cpu2.numWorkItemsCompleted                   0                       # number of work items this cpu completed
system.cpu2.numWorkItemsStarted                     0                       # number of work items this cpu started
system.cpu3.committedInsts                  904868564                       # Number of instructions committed
system.cpu3.dtb.rdAccesses                          0                       # TLB accesses on read requests
system.cpu3.dtb.rdMisses                            0                       # TLB misses on read requests
system.cpu3.dtb.wrAccesses                          0                       # TLB accesses on write requests
system.cpu3.dtb.wrMisses                            0                       # TLB misses on write requests
system.cpu3.itb.rdAccesses                          0                       # TLB accesses on read requests
system.cpu3.itb.rdMisses                            0                       # TLB misses on read requests
system.cpu3.itb.wrAccesses                          0                       # TLB accesses on write requests
system.cpu3.itb.wrMisses                            0                       # TLB misses on write requests
system.cpu3.kern.inst.arm                           0                       # number of arm instructions executed
system.cpu3.kern.inst.quiesce                       0                       # number of quiesce instructions executed
system.cpu3.numCoalescedMMIO                        0                       # number of coalesced memory mapped IO requests
system.cpu3.numCycles                    205197621395                       # number of cpu cycles simulated
system.cpu3.numExitSignal                      278687                       # exits due to signal delivery
system.cpu3.numHalt                             98222                       # number of VM exits due to wait for interrupt instructions
system.cpu3.numHypercalls                           0                       # number of hypercalls
system.cpu3.numIO                               12112                       # number of VM exits due to legacy IO
system.cpu3.numInterrupts                      103749                       # number of interrupts delivered
system.cpu3.numMMIO                            106739                       # number of VM exits due to memory mapped IO
system.cpu3.numVMExits                         497675                       # total number of KVM exits
system.cpu3.numVMHalfEntries                       58                       # number of KVM entries to finalize pending operations
system.cpu3.numWorkItemsCompleted                   0                       # number of work items this cpu completed
system.cpu3.numWorkItemsStarted                     0                       # number of work items this cpu started
system.pc.south_bridge.ide.disks.dma_read_bytes     10039296                       # Number of bytes transfered via DMA reads (not PRD).
system.pc.south_bridge.ide.disks.dma_read_full_pages         2451                       # Number of full page size DMA reads (not PRD).
system.pc.south_bridge.ide.disks.dma_read_txs         2451                       # Number of DMA read transactions (not PRD).
system.pc.south_bridge.ide.disks.dma_write_bytes     53315584                       # Number of bytes transfered via DMA writes.
system.pc.south_bridge.ide.disks.dma_write_full_pages        13016                       # Number of full page size DMA writes.
system.pc.south_bridge.ide.disks.dma_write_txs        13018                       # Number of DMA write transactions.
system.ruby.dma_cntrl0.cache.demand_accesses            0                       # Number of cache demand accesses
system.ruby.dma_cntrl0.cache.demand_hits            0                       # Number of cache demand hits
system.ruby.dma_cntrl0.cache.demand_misses            0                       # Number of cache demand misses
system.ruby.io_controller.cache.demand_accesses            0                       # Number of cache demand accesses
system.ruby.io_controller.cache.demand_hits            0                       # Number of cache demand hits
system.ruby.io_controller.cache.demand_misses            0                       # Number of cache demand misses
system.ruby.l1_cntrl0.cache.demand_accesses            0                       # Number of cache demand accesses
system.ruby.l1_cntrl0.cache.demand_hits             0                       # Number of cache demand hits
system.ruby.l1_cntrl0.cache.demand_misses            0                       # Number of cache demand misses
system.ruby.l1_cntrl1.cache.demand_accesses            0                       # Number of cache demand accesses
system.ruby.l1_cntrl1.cache.demand_hits             0                       # Number of cache demand hits
system.ruby.l1_cntrl1.cache.demand_misses            0                       # Number of cache demand misses
system.ruby.l1_cntrl2.cache.demand_accesses            0                       # Number of cache demand accesses
system.ruby.l1_cntrl2.cache.demand_hits             0                       # Number of cache demand hits
system.ruby.l1_cntrl2.cache.demand_misses            0                       # Number of cache demand misses
system.ruby.l1_cntrl3.cache.demand_accesses            0                       # Number of cache demand accesses
system.ruby.l1_cntrl3.cache.demand_hits             0                       # Number of cache demand hits
system.ruby.l1_cntrl3.cache.demand_misses            0                       # Number of cache demand misses
system.ruby.network.average_flit_latency          nan                      
system.ruby.network.average_flit_network_latency          nan                      
system.ruby.network.average_flit_queueing_latency          nan                      
system.ruby.network.average_flit_vnet_latency |         nan                       |         nan                       |         nan                      
system.ruby.network.average_flit_vqueue_latency |         nan                       |         nan                       |         nan                      
system.ruby.network.average_hops                  nan                      
system.ruby.network.average_packet_latency          nan                      
system.ruby.network.average_packet_network_latency          nan                      
system.ruby.network.average_packet_queueing_latency          nan                      
system.ruby.network.average_packet_vnet_latency |         nan                       |         nan                       |         nan                      
system.ruby.network.average_packet_vqueue_latency |         nan                       |         nan                       |         nan                      
system.ruby.network.avg_link_utilization            0                      
system.ruby.network.ext_in_link_utilization            0                      
system.ruby.network.ext_out_link_utilization            0                      
system.ruby.network.flit_network_latency |           0                       |           0                       |           0                      
system.ruby.network.flit_queueing_latency |           0                       |           0                       |           0                      
system.ruby.network.int_link_utilization            0                      
system.ruby.network.packet_network_latency |           0                       |           0                       |           0                      
system.ruby.network.packet_queueing_latency |           0                       |           0                       |           0                      
system.switch_cpus0.committedInsts                  0                       # Number of instructions committed
system.switch_cpus0.committedOps                    0                       # Number of ops (including micro ops) committed
system.switch_cpus0.dtb.rdAccesses                  0                       # TLB accesses on read requests
system.switch_cpus0.dtb.rdMisses                    0                       # TLB misses on read requests
system.switch_cpus0.dtb.wrAccesses                  0                       # TLB accesses on write requests
system.switch_cpus0.dtb.wrMisses                    0                       # TLB misses on write requests
system.switch_cpus0.idle_fraction                   1                       # Percentage of idle cycles
system.switch_cpus0.itb.rdAccesses                  0                       # TLB accesses on read requests
system.switch_cpus0.itb.rdMisses                    0                       # TLB misses on read requests
system.switch_cpus0.itb.wrAccesses                  0                       # TLB accesses on write requests
system.switch_cpus0.itb.wrMisses                    0                       # TLB misses on write requests
system.switch_cpus0.kern.inst.arm                   0                       # number of arm instructions executed
system.switch_cpus0.kern.inst.quiesce               0                       # number of quiesce instructions executed
system.switch_cpus0.not_idle_fraction               0                       # Percentage of non-idle cycles
system.switch_cpus0.numCycles                       0                       # number of cpu cycles simulated
system.switch_cpus0.numWorkItemsCompleted            0                       # number of work items this cpu completed
system.switch_cpus0.numWorkItemsStarted             0                       # number of work items this cpu started
system.switch_cpus0.num_busy_cycles                 0                       # Number of busy cycles
system.switch_cpus0.num_conditional_control_insts            0                       # number of instructions that are conditional controls
system.switch_cpus0.num_fp_alu_accesses             0                       # Number of float alu accesses
system.switch_cpus0.num_fp_insts                    0                       # number of float instructions
system.switch_cpus0.num_fp_register_reads            0                       # number of times the floating registers were read
system.switch_cpus0.num_fp_register_writes            0                       # number of times the floating registers were written
system.switch_cpus0.num_func_calls                  0                       # number of times a function call or return occured
system.switch_cpus0.num_idle_cycles                 0                       # Number of idle cycles
system.switch_cpus0.num_int_alu_accesses            0                       # Number of integer alu accesses
system.switch_cpus0.num_int_insts                   0                       # number of integer instructions
system.switch_cpus0.num_int_register_reads            0                       # number of times the integer registers were read
system.switch_cpus0.num_int_register_writes            0                       # number of times the integer registers were written
system.switch_cpus0.num_load_insts                  0                       # Number of load instructions
system.switch_cpus0.num_mem_refs                    0                       # number of memory refs
system.switch_cpus0.num_store_insts                 0                       # Number of store instructions
system.switch_cpus0.num_vec_alu_accesses            0                       # Number of vector alu accesses
system.switch_cpus0.num_vec_insts                   0                       # number of vector instructions
system.switch_cpus0.num_vec_register_reads            0                       # number of times the vector registers were read
system.switch_cpus0.num_vec_register_writes            0                       # number of times the vector registers were written
system.switch_cpus0.op_class::No_OpClass            0                       # Class of executed instruction
system.switch_cpus0.op_class::IntAlu                0                       # Class of executed instruction
system.switch_cpus0.op_class::IntMult               0                       # Class of executed instruction
system.switch_cpus0.op_class::IntDiv                0                       # Class of executed instruction
system.switch_cpus0.op_class::FloatAdd              0                       # Class of executed instruction
system.switch_cpus0.op_class::FloatCmp              0                       # Class of executed instruction
system.switch_cpus0.op_class::FloatCvt              0                       # Class of executed instruction
system.switch_cpus0.op_class::FloatMult             0                       # Class of executed instruction
system.switch_cpus0.op_class::FloatMultAcc            0                       # Class of executed instruction
system.switch_cpus0.op_class::FloatDiv              0                       # Class of executed instruction
system.switch_cpus0.op_class::FloatMisc             0                       # Class of executed instruction
system.switch_cpus0.op_class::FloatSqrt             0                       # Class of executed instruction
system.switch_cpus0.op_class::SimdAdd               0                       # Class of executed instruction
system.switch_cpus0.op_class::SimdAddAcc            0                       # Class of executed instruction
system.switch_cpus0.op_class::SimdAlu               0                       # Class of executed instruction
system.switch_cpus0.op_class::SimdCmp               0                       # Class of executed instruction
system.switch_cpus0.op_class::SimdCvt               0                       # Class of executed instruction
system.switch_cpus0.op_class::SimdMisc              0                       # Class of executed instruction
system.switch_cpus0.op_class::SimdMult              0                       # Class of executed instruction
system.switch_cpus0.op_class::SimdMultAcc            0                       # Class of executed instruction
system.switch_cpus0.op_class::SimdShift             0                       # Class of executed instruction
system.switch_cpus0.op_class::SimdShiftAcc            0                       # Class of executed instruction
system.switch_cpus0.op_class::SimdDiv               0                       # Class of executed instruction
system.switch_cpus0.op_class::SimdSqrt              0                       # Class of executed instruction
system.switch_cpus0.op_class::SimdFloatAdd            0                       # Class of executed instruction
system.switch_cpus0.op_class::SimdFloatAlu            0                       # Class of executed instruction
system.switch_cpus0.op_class::SimdFloatCmp            0                       # Class of executed instruction
system.switch_cpus0.op_class::SimdFloatCvt            0                       # Class of executed instruction
system.switch_cpus0.op_class::SimdFloatDiv            0                       # Class of executed instruction
system.switch_cpus0.op_class::SimdFloatMisc            0                       # Class of executed instruction
system.switch_cpus0.op_class::SimdFloatMult            0                       # Class of executed instruction
system.switch_cpus0.op_class::SimdFloatMultAcc            0                       # Class of executed instruction
system.switch_cpus0.op_class::SimdFloatSqrt            0                       # Class of executed instruction
system.switch_cpus0.op_class::SimdReduceAdd            0                       # Class of executed instruction
system.switch_cpus0.op_class::SimdReduceAlu            0                       # Class of executed instruction
system.switch_cpus0.op_class::SimdReduceCmp            0                       # Class of executed instruction
system.switch_cpus0.op_class::SimdFloatReduceAdd            0                       # Class of executed instruction
system.switch_cpus0.op_class::SimdFloatReduceCmp            0                       # Class of executed instruction
system.switch_cpus0.op_class::SimdAes               0                       # Class of executed instruction
system.switch_cpus0.op_class::SimdAesMix            0                       # Class of executed instruction
system.switch_cpus0.op_class::SimdSha1Hash            0                       # Class of executed instruction
system.switch_cpus0.op_class::SimdSha1Hash2            0                       # Class of executed instruction
system.switch_cpus0.op_class::SimdSha256Hash            0                       # Class of executed instruction
system.switch_cpus0.op_class::SimdSha256Hash2            0                       # Class of executed instruction
system.switch_cpus0.op_class::SimdShaSigma2            0                       # Class of executed instruction
system.switch_cpus0.op_class::SimdShaSigma3            0                       # Class of executed instruction
system.switch_cpus0.op_class::SimdPredAlu            0                       # Class of executed instruction
system.switch_cpus0.op_class::MemRead               0                       # Class of executed instruction
system.switch_cpus0.op_class::MemWrite              0                       # Class of executed instruction
system.switch_cpus0.op_class::FloatMemRead            0                       # Class of executed instruction
system.switch_cpus0.op_class::FloatMemWrite            0                       # Class of executed instruction
system.switch_cpus0.op_class::IprAccess             0                       # Class of executed instruction
system.switch_cpus0.op_class::InstPrefetch            0                       # Class of executed instruction
system.switch_cpus0.op_class::total                 0                       # Class of executed instruction
system.switch_cpus1.committedInsts                  0                       # Number of instructions committed
system.switch_cpus1.committedOps                    0                       # Number of ops (including micro ops) committed
system.switch_cpus1.dtb.rdAccesses                  0                       # TLB accesses on read requests
system.switch_cpus1.dtb.rdMisses                    0                       # TLB misses on read requests
system.switch_cpus1.dtb.wrAccesses                  0                       # TLB accesses on write requests
system.switch_cpus1.dtb.wrMisses                    0                       # TLB misses on write requests
system.switch_cpus1.idle_fraction                   1                       # Percentage of idle cycles
system.switch_cpus1.itb.rdAccesses                  0                       # TLB accesses on read requests
system.switch_cpus1.itb.rdMisses                    0                       # TLB misses on read requests
system.switch_cpus1.itb.wrAccesses                  0                       # TLB accesses on write requests
system.switch_cpus1.itb.wrMisses                    0                       # TLB misses on write requests
system.switch_cpus1.kern.inst.arm                   0                       # number of arm instructions executed
system.switch_cpus1.kern.inst.quiesce               0                       # number of quiesce instructions executed
system.switch_cpus1.not_idle_fraction               0                       # Percentage of non-idle cycles
system.switch_cpus1.numCycles                       0                       # number of cpu cycles simulated
system.switch_cpus1.numWorkItemsCompleted            0                       # number of work items this cpu completed
system.switch_cpus1.numWorkItemsStarted             0                       # number of work items this cpu started
system.switch_cpus1.num_busy_cycles                 0                       # Number of busy cycles
system.switch_cpus1.num_conditional_control_insts            0                       # number of instructions that are conditional controls
system.switch_cpus1.num_fp_alu_accesses             0                       # Number of float alu accesses
system.switch_cpus1.num_fp_insts                    0                       # number of float instructions
system.switch_cpus1.num_fp_register_reads            0                       # number of times the floating registers were read
system.switch_cpus1.num_fp_register_writes            0                       # number of times the floating registers were written
system.switch_cpus1.num_func_calls                  0                       # number of times a function call or return occured
system.switch_cpus1.num_idle_cycles                 0                       # Number of idle cycles
system.switch_cpus1.num_int_alu_accesses            0                       # Number of integer alu accesses
system.switch_cpus1.num_int_insts                   0                       # number of integer instructions
system.switch_cpus1.num_int_register_reads            0                       # number of times the integer registers were read
system.switch_cpus1.num_int_register_writes            0                       # number of times the integer registers were written
system.switch_cpus1.num_load_insts                  0                       # Number of load instructions
system.switch_cpus1.num_mem_refs                    0                       # number of memory refs
system.switch_cpus1.num_store_insts                 0                       # Number of store instructions
system.switch_cpus1.num_vec_alu_accesses            0                       # Number of vector alu accesses
system.switch_cpus1.num_vec_insts                   0                       # number of vector instructions
system.switch_cpus1.num_vec_register_reads            0                       # number of times the vector registers were read
system.switch_cpus1.num_vec_register_writes            0                       # number of times the vector registers were written
system.switch_cpus1.op_class::No_OpClass            0                       # Class of executed instruction
system.switch_cpus1.op_class::IntAlu                0                       # Class of executed instruction
system.switch_cpus1.op_class::IntMult               0                       # Class of executed instruction
system.switch_cpus1.op_class::IntDiv                0                       # Class of executed instruction
system.switch_cpus1.op_class::FloatAdd              0                       # Class of executed instruction
system.switch_cpus1.op_class::FloatCmp              0                       # Class of executed instruction
system.switch_cpus1.op_class::FloatCvt              0                       # Class of executed instruction
system.switch_cpus1.op_class::FloatMult             0                       # Class of executed instruction
system.switch_cpus1.op_class::FloatMultAcc            0                       # Class of executed instruction
system.switch_cpus1.op_class::FloatDiv              0                       # Class of executed instruction
system.switch_cpus1.op_class::FloatMisc             0                       # Class of executed instruction
system.switch_cpus1.op_class::FloatSqrt             0                       # Class of executed instruction
system.switch_cpus1.op_class::SimdAdd               0                       # Class of executed instruction
system.switch_cpus1.op_class::SimdAddAcc            0                       # Class of executed instruction
system.switch_cpus1.op_class::SimdAlu               0                       # Class of executed instruction
system.switch_cpus1.op_class::SimdCmp               0                       # Class of executed instruction
system.switch_cpus1.op_class::SimdCvt               0                       # Class of executed instruction
system.switch_cpus1.op_class::SimdMisc              0                       # Class of executed instruction
system.switch_cpus1.op_class::SimdMult              0                       # Class of executed instruction
system.switch_cpus1.op_class::SimdMultAcc            0                       # Class of executed instruction
system.switch_cpus1.op_class::SimdShift             0                       # Class of executed instruction
system.switch_cpus1.op_class::SimdShiftAcc            0                       # Class of executed instruction
system.switch_cpus1.op_class::SimdDiv               0                       # Class of executed instruction
system.switch_cpus1.op_class::SimdSqrt              0                       # Class of executed instruction
system.switch_cpus1.op_class::SimdFloatAdd            0                       # Class of executed instruction
system.switch_cpus1.op_class::SimdFloatAlu            0                       # Class of executed instruction
system.switch_cpus1.op_class::SimdFloatCmp            0                       # Class of executed instruction
system.switch_cpus1.op_class::SimdFloatCvt            0                       # Class of executed instruction
system.switch_cpus1.op_class::SimdFloatDiv            0                       # Class of executed instruction
system.switch_cpus1.op_class::SimdFloatMisc            0                       # Class of executed instruction
system.switch_cpus1.op_class::SimdFloatMult            0                       # Class of executed instruction
system.switch_cpus1.op_class::SimdFloatMultAcc            0                       # Class of executed instruction
system.switch_cpus1.op_class::SimdFloatSqrt            0                       # Class of executed instruction
system.switch_cpus1.op_class::SimdReduceAdd            0                       # Class of executed instruction
system.switch_cpus1.op_class::SimdReduceAlu            0                       # Class of executed instruction
system.switch_cpus1.op_class::SimdReduceCmp            0                       # Class of executed instruction
system.switch_cpus1.op_class::SimdFloatReduceAdd            0                       # Class of executed instruction
system.switch_cpus1.op_class::SimdFloatReduceCmp            0                       # Class of executed instruction
system.switch_cpus1.op_class::SimdAes               0                       # Class of executed instruction
system.switch_cpus1.op_class::SimdAesMix            0                       # Class of executed instruction
system.switch_cpus1.op_class::SimdSha1Hash            0                       # Class of executed instruction
system.switch_cpus1.op_class::SimdSha1Hash2            0                       # Class of executed instruction
system.switch_cpus1.op_class::SimdSha256Hash            0                       # Class of executed instruction
system.switch_cpus1.op_class::SimdSha256Hash2            0                       # Class of executed instruction
system.switch_cpus1.op_class::SimdShaSigma2            0                       # Class of executed instruction
system.switch_cpus1.op_class::SimdShaSigma3            0                       # Class of executed instruction
system.switch_cpus1.op_class::SimdPredAlu            0                       # Class of executed instruction
system.switch_cpus1.op_class::MemRead               0                       # Class of executed instruction
system.switch_cpus1.op_class::MemWrite              0                       # Class of executed instruction
system.switch_cpus1.op_class::FloatMemRead            0                       # Class of executed instruction
system.switch_cpus1.op_class::FloatMemWrite            0                       # Class of executed instruction
system.switch_cpus1.op_class::IprAccess             0                       # Class of executed instruction
system.switch_cpus1.op_class::InstPrefetch            0                       # Class of executed instruction
system.switch_cpus1.op_class::total                 0                       # Class of executed instruction
system.switch_cpus2.committedInsts                  0                       # Number of instructions committed
system.switch_cpus2.committedOps                    0                       # Number of ops (including micro ops) committed
system.switch_cpus2.dtb.rdAccesses                  0                       # TLB accesses on read requests
system.switch_cpus2.dtb.rdMisses                    0                       # TLB misses on read requests
system.switch_cpus2.dtb.wrAccesses                  0                       # TLB accesses on write requests
system.switch_cpus2.dtb.wrMisses                    0                       # TLB misses on write requests
system.switch_cpus2.idle_fraction                   1                       # Percentage of idle cycles
system.switch_cpus2.itb.rdAccesses                  0                       # TLB accesses on read requests
system.switch_cpus2.itb.rdMisses                    0                       # TLB misses on read requests
system.switch_cpus2.itb.wrAccesses                  0                       # TLB accesses on write requests
system.switch_cpus2.itb.wrMisses                    0                       # TLB misses on write requests
system.switch_cpus2.kern.inst.arm                   0                       # number of arm instructions executed
system.switch_cpus2.kern.inst.quiesce               0                       # number of quiesce instructions executed
system.switch_cpus2.not_idle_fraction               0                       # Percentage of non-idle cycles
system.switch_cpus2.numCycles                       0                       # number of cpu cycles simulated
system.switch_cpus2.numWorkItemsCompleted            0                       # number of work items this cpu completed
system.switch_cpus2.numWorkItemsStarted             0                       # number of work items this cpu started
system.switch_cpus2.num_busy_cycles                 0                       # Number of busy cycles
system.switch_cpus2.num_conditional_control_insts            0                       # number of instructions that are conditional controls
system.switch_cpus2.num_fp_alu_accesses             0                       # Number of float alu accesses
system.switch_cpus2.num_fp_insts                    0                       # number of float instructions
system.switch_cpus2.num_fp_register_reads            0                       # number of times the floating registers were read
system.switch_cpus2.num_fp_register_writes            0                       # number of times the floating registers were written
system.switch_cpus2.num_func_calls                  0                       # number of times a function call or return occured
system.switch_cpus2.num_idle_cycles                 0                       # Number of idle cycles
system.switch_cpus2.num_int_alu_accesses            0                       # Number of integer alu accesses
system.switch_cpus2.num_int_insts                   0                       # number of integer instructions
system.switch_cpus2.num_int_register_reads            0                       # number of times the integer registers were read
system.switch_cpus2.num_int_register_writes            0                       # number of times the integer registers were written
system.switch_cpus2.num_load_insts                  0                       # Number of load instructions
system.switch_cpus2.num_mem_refs                    0                       # number of memory refs
system.switch_cpus2.num_store_insts                 0                       # Number of store instructions
system.switch_cpus2.num_vec_alu_accesses            0                       # Number of vector alu accesses
system.switch_cpus2.num_vec_insts                   0                       # number of vector instructions
system.switch_cpus2.num_vec_register_reads            0                       # number of times the vector registers were read
system.switch_cpus2.num_vec_register_writes            0                       # number of times the vector registers were written
system.switch_cpus2.op_class::No_OpClass            0                       # Class of executed instruction
system.switch_cpus2.op_class::IntAlu                0                       # Class of executed instruction
system.switch_cpus2.op_class::IntMult               0                       # Class of executed instruction
system.switch_cpus2.op_class::IntDiv                0                       # Class of executed instruction
system.switch_cpus2.op_class::FloatAdd              0                       # Class of executed instruction
system.switch_cpus2.op_class::FloatCmp              0                       # Class of executed instruction
system.switch_cpus2.op_class::FloatCvt              0                       # Class of executed instruction
system.switch_cpus2.op_class::FloatMult             0                       # Class of executed instruction
system.switch_cpus2.op_class::FloatMultAcc            0                       # Class of executed instruction
system.switch_cpus2.op_class::FloatDiv              0                       # Class of executed instruction
system.switch_cpus2.op_class::FloatMisc             0                       # Class of executed instruction
system.switch_cpus2.op_class::FloatSqrt             0                       # Class of executed instruction
system.switch_cpus2.op_class::SimdAdd               0                       # Class of executed instruction
system.switch_cpus2.op_class::SimdAddAcc            0                       # Class of executed instruction
system.switch_cpus2.op_class::SimdAlu               0                       # Class of executed instruction
system.switch_cpus2.op_class::SimdCmp               0                       # Class of executed instruction
system.switch_cpus2.op_class::SimdCvt               0                       # Class of executed instruction
system.switch_cpus2.op_class::SimdMisc              0                       # Class of executed instruction
system.switch_cpus2.op_class::SimdMult              0                       # Class of executed instruction
system.switch_cpus2.op_class::SimdMultAcc            0                       # Class of executed instruction
system.switch_cpus2.op_class::SimdShift             0                       # Class of executed instruction
system.switch_cpus2.op_class::SimdShiftAcc            0                       # Class of executed instruction
system.switch_cpus2.op_class::SimdDiv               0                       # Class of executed instruction
system.switch_cpus2.op_class::SimdSqrt              0                       # Class of executed instruction
system.switch_cpus2.op_class::SimdFloatAdd            0                       # Class of executed instruction
system.switch_cpus2.op_class::SimdFloatAlu            0                       # Class of executed instruction
system.switch_cpus2.op_class::SimdFloatCmp            0                       # Class of executed instruction
system.switch_cpus2.op_class::SimdFloatCvt            0                       # Class of executed instruction
system.switch_cpus2.op_class::SimdFloatDiv            0                       # Class of executed instruction
system.switch_cpus2.op_class::SimdFloatMisc            0                       # Class of executed instruction
system.switch_cpus2.op_class::SimdFloatMult            0                       # Class of executed instruction
system.switch_cpus2.op_class::SimdFloatMultAcc            0                       # Class of executed instruction
system.switch_cpus2.op_class::SimdFloatSqrt            0                       # Class of executed instruction
system.switch_cpus2.op_class::SimdReduceAdd            0                       # Class of executed instruction
system.switch_cpus2.op_class::SimdReduceAlu            0                       # Class of executed instruction
system.switch_cpus2.op_class::SimdReduceCmp            0                       # Class of executed instruction
system.switch_cpus2.op_class::SimdFloatReduceAdd            0                       # Class of executed instruction
system.switch_cpus2.op_class::SimdFloatReduceCmp            0                       # Class of executed instruction
system.switch_cpus2.op_class::SimdAes               0                       # Class of executed instruction
system.switch_cpus2.op_class::SimdAesMix            0                       # Class of executed instruction
system.switch_cpus2.op_class::SimdSha1Hash            0                       # Class of executed instruction
system.switch_cpus2.op_class::SimdSha1Hash2            0                       # Class of executed instruction
system.switch_cpus2.op_class::SimdSha256Hash            0                       # Class of executed instruction
system.switch_cpus2.op_class::SimdSha256Hash2            0                       # Class of executed instruction
system.switch_cpus2.op_class::SimdShaSigma2            0                       # Class of executed instruction
system.switch_cpus2.op_class::SimdShaSigma3            0                       # Class of executed instruction
system.switch_cpus2.op_class::SimdPredAlu            0                       # Class of executed instruction
system.switch_cpus2.op_class::MemRead               0                       # Class of executed instruction
system.switch_cpus2.op_class::MemWrite              0                       # Class of executed instruction
system.switch_cpus2.op_class::FloatMemRead            0                       # Class of executed instruction
system.switch_cpus2.op_class::FloatMemWrite            0                       # Class of executed instruction
system.switch_cpus2.op_class::IprAccess             0                       # Class of executed instruction
system.switch_cpus2.op_class::InstPrefetch            0                       # Class of executed instruction
system.switch_cpus2.op_class::total                 0                       # Class of executed instruction
system.switch_cpus3.committedInsts                  0                       # Number of instructions committed
system.switch_cpus3.committedOps                    0                       # Number of ops (including micro ops) committed
system.switch_cpus3.dtb.rdAccesses                  0                       # TLB accesses on read requests
system.switch_cpus3.dtb.rdMisses                    0                       # TLB misses on read requests
system.switch_cpus3.dtb.wrAccesses                  0                       # TLB accesses on write requests
system.switch_cpus3.dtb.wrMisses                    0                       # TLB misses on write requests
system.switch_cpus3.idle_fraction                   1                       # Percentage of idle cycles
system.switch_cpus3.itb.rdAccesses                  0                       # TLB accesses on read requests
system.switch_cpus3.itb.rdMisses                    0                       # TLB misses on read requests
system.switch_cpus3.itb.wrAccesses                  0                       # TLB accesses on write requests
system.switch_cpus3.itb.wrMisses                    0                       # TLB misses on write requests
system.switch_cpus3.kern.inst.arm                   0                       # number of arm instructions executed
system.switch_cpus3.kern.inst.quiesce               0                       # number of quiesce instructions executed
system.switch_cpus3.not_idle_fraction               0                       # Percentage of non-idle cycles
system.switch_cpus3.numCycles                       0                       # number of cpu cycles simulated
system.switch_cpus3.numWorkItemsCompleted            0                       # number of work items this cpu completed
system.switch_cpus3.numWorkItemsStarted             0                       # number of work items this cpu started
system.switch_cpus3.num_busy_cycles                 0                       # Number of busy cycles
system.switch_cpus3.num_conditional_control_insts            0                       # number of instructions that are conditional controls
system.switch_cpus3.num_fp_alu_accesses             0                       # Number of float alu accesses
system.switch_cpus3.num_fp_insts                    0                       # number of float instructions
system.switch_cpus3.num_fp_register_reads            0                       # number of times the floating registers were read
system.switch_cpus3.num_fp_register_writes            0                       # number of times the floating registers were written
system.switch_cpus3.num_func_calls                  0                       # number of times a function call or return occured
system.switch_cpus3.num_idle_cycles                 0                       # Number of idle cycles
system.switch_cpus3.num_int_alu_accesses            0                       # Number of integer alu accesses
system.switch_cpus3.num_int_insts                   0                       # number of integer instructions
system.switch_cpus3.num_int_register_reads            0                       # number of times the integer registers were read
system.switch_cpus3.num_int_register_writes            0                       # number of times the integer registers were written
system.switch_cpus3.num_load_insts                  0                       # Number of load instructions
system.switch_cpus3.num_mem_refs                    0                       # number of memory refs
system.switch_cpus3.num_store_insts                 0                       # Number of store instructions
system.switch_cpus3.num_vec_alu_accesses            0                       # Number of vector alu accesses
system.switch_cpus3.num_vec_insts                   0                       # number of vector instructions
system.switch_cpus3.num_vec_register_reads            0                       # number of times the vector registers were read
system.switch_cpus3.num_vec_register_writes            0                       # number of times the vector registers were written
system.switch_cpus3.op_class::No_OpClass            0                       # Class of executed instruction
system.switch_cpus3.op_class::IntAlu                0                       # Class of executed instruction
system.switch_cpus3.op_class::IntMult               0                       # Class of executed instruction
system.switch_cpus3.op_class::IntDiv                0                       # Class of executed instruction
system.switch_cpus3.op_class::FloatAdd              0                       # Class of executed instruction
system.switch_cpus3.op_class::FloatCmp              0                       # Class of executed instruction
system.switch_cpus3.op_class::FloatCvt              0                       # Class of executed instruction
system.switch_cpus3.op_class::FloatMult             0                       # Class of executed instruction
system.switch_cpus3.op_class::FloatMultAcc            0                       # Class of executed instruction
system.switch_cpus3.op_class::FloatDiv              0                       # Class of executed instruction
system.switch_cpus3.op_class::FloatMisc             0                       # Class of executed instruction
system.switch_cpus3.op_class::FloatSqrt             0                       # Class of executed instruction
system.switch_cpus3.op_class::SimdAdd               0                       # Class of executed instruction
system.switch_cpus3.op_class::SimdAddAcc            0                       # Class of executed instruction
system.switch_cpus3.op_class::SimdAlu               0                       # Class of executed instruction
system.switch_cpus3.op_class::SimdCmp               0                       # Class of executed instruction
system.switch_cpus3.op_class::SimdCvt               0                       # Class of executed instruction
system.switch_cpus3.op_class::SimdMisc              0                       # Class of executed instruction
system.switch_cpus3.op_class::SimdMult              0                       # Class of executed instruction
system.switch_cpus3.op_class::SimdMultAcc            0                       # Class of executed instruction
system.switch_cpus3.op_class::SimdShift             0                       # Class of executed instruction
system.switch_cpus3.op_class::SimdShiftAcc            0                       # Class of executed instruction
system.switch_cpus3.op_class::SimdDiv               0                       # Class of executed instruction
system.switch_cpus3.op_class::SimdSqrt              0                       # Class of executed instruction
system.switch_cpus3.op_class::SimdFloatAdd            0                       # Class of executed instruction
system.switch_cpus3.op_class::SimdFloatAlu            0                       # Class of executed instruction
system.switch_cpus3.op_class::SimdFloatCmp            0                       # Class of executed instruction
system.switch_cpus3.op_class::SimdFloatCvt            0                       # Class of executed instruction
system.switch_cpus3.op_class::SimdFloatDiv            0                       # Class of executed instruction
system.switch_cpus3.op_class::SimdFloatMisc            0                       # Class of executed instruction
system.switch_cpus3.op_class::SimdFloatMult            0                       # Class of executed instruction
system.switch_cpus3.op_class::SimdFloatMultAcc            0                       # Class of executed instruction
system.switch_cpus3.op_class::SimdFloatSqrt            0                       # Class of executed instruction
system.switch_cpus3.op_class::SimdReduceAdd            0                       # Class of executed instruction
system.switch_cpus3.op_class::SimdReduceAlu            0                       # Class of executed instruction
system.switch_cpus3.op_class::SimdReduceCmp            0                       # Class of executed instruction
system.switch_cpus3.op_class::SimdFloatReduceAdd            0                       # Class of executed instruction
system.switch_cpus3.op_class::SimdFloatReduceCmp            0                       # Class of executed instruction
system.switch_cpus3.op_class::SimdAes               0                       # Class of executed instruction
system.switch_cpus3.op_class::SimdAesMix            0                       # Class of executed instruction
system.switch_cpus3.op_class::SimdSha1Hash            0                       # Class of executed instruction
system.switch_cpus3.op_class::SimdSha1Hash2            0                       # Class of executed instruction
system.switch_cpus3.op_class::SimdSha256Hash            0                       # Class of executed instruction
system.switch_cpus3.op_class::SimdSha256Hash2            0                       # Class of executed instruction
system.switch_cpus3.op_class::SimdShaSigma2            0                       # Class of executed instruction
system.switch_cpus3.op_class::SimdShaSigma3            0                       # Class of executed instruction
system.switch_cpus3.op_class::SimdPredAlu            0                       # Class of executed instruction
system.switch_cpus3.op_class::MemRead               0                       # Class of executed instruction
system.switch_cpus3.op_class::MemWrite              0                       # Class of executed instruction
system.switch_cpus3.op_class::FloatMemRead            0                       # Class of executed instruction
system.switch_cpus3.op_class::FloatMemWrite            0                       # Class of executed instruction
system.switch_cpus3.op_class::IprAccess             0                       # Class of executed instruction
system.switch_cpus3.op_class::InstPrefetch            0                       # Class of executed instruction
system.switch_cpus3.op_class::total                 0                       # Class of executed instruction
system.cpu_clk_domain.clock                       500                       # Clock period in ticks
system.voltage_domain.voltage                       1                       # Voltage in Volts
system.clk_domain.clock                          1000                       # Clock period in ticks
system.pc.fake_com_4.power_state.pwrStateResidencyTicks::UNDEFINED 102599423957000                       # Cumulative time (in ticks) in various power states
system.pc.fake_com_2.power_state.pwrStateResidencyTicks::UNDEFINED 102599423957000                       # Cumulative time (in ticks) in various power states
system.pc.fake_com_3.power_state.pwrStateResidencyTicks::UNDEFINED 102599423957000                       # Cumulative time (in ticks) in various power states
system.pc.south_bridge.io_apic.power_state.pwrStateResidencyTicks::UNDEFINED 102599423957000                       # Cumulative time (in ticks) in various power states
system.pc.south_bridge.pic1.power_state.pwrStateResidencyTicks::UNDEFINED 102599423957000                       # Cumulative time (in ticks) in various power states
system.pc.south_bridge.pic2.power_state.pwrStateResidencyTicks::UNDEFINED 102599423957000                       # Cumulative time (in ticks) in various power states
system.pc.south_bridge.dma1.power_state.pwrStateResidencyTicks::UNDEFINED 102599423957000                       # Cumulative time (in ticks) in various power states
system.pc.south_bridge.speaker.power_state.pwrStateResidencyTicks::UNDEFINED 102599423957000                       # Cumulative time (in ticks) in various power states
system.pc.south_bridge.keyboard.power_state.pwrStateResidencyTicks::UNDEFINED 102599423957000                       # Cumulative time (in ticks) in various power states
system.pc.south_bridge.ide.power_state.pwrStateResidencyTicks::UNDEFINED 102599423957000                       # Cumulative time (in ticks) in various power states
system.pc.south_bridge.pit.power_state.pwrStateResidencyTicks::UNDEFINED 102599423957000                       # Cumulative time (in ticks) in various power states
system.pc.south_bridge.cmos.power_state.pwrStateResidencyTicks::UNDEFINED 102599423957000                       # Cumulative time (in ticks) in various power states
system.pc.i_dont_exist2.power_state.pwrStateResidencyTicks::UNDEFINED 102599423957000                       # Cumulative time (in ticks) in various power states
system.pc.i_dont_exist1.power_state.pwrStateResidencyTicks::UNDEFINED 102599423957000                       # Cumulative time (in ticks) in various power states
system.pc.com_1.power_state.pwrStateResidencyTicks::UNDEFINED 102599423957000                       # Cumulative time (in ticks) in various power states
system.pc.fake_floppy.power_state.pwrStateResidencyTicks::UNDEFINED 102599423957000                       # Cumulative time (in ticks) in various power states
system.pc.behind_pci.power_state.pwrStateResidencyTicks::UNDEFINED 102599423957000                       # Cumulative time (in ticks) in various power states
system.pc.pci_host.power_state.pwrStateResidencyTicks::UNDEFINED 102599423957000                       # Cumulative time (in ticks) in various power states
system.switch_cpus2.dtb.walker.power_state.pwrStateResidencyTicks::UNDEFINED 102599423957000                       # Cumulative time (in ticks) in various power states
system.switch_cpus2.itb.walker.power_state.pwrStateResidencyTicks::UNDEFINED 102599423957000                       # Cumulative time (in ticks) in various power states
system.switch_cpus2.power_state.numTransitions            1                       # Number of power state transitions
system.switch_cpus2.power_state.pwrStateResidencyTicks::OFF 102599423957000                       # Cumulative time (in ticks) in various power states
system.switch_cpus3.dtb.walker.power_state.pwrStateResidencyTicks::UNDEFINED 102599423957000                       # Cumulative time (in ticks) in various power states
system.switch_cpus3.itb.walker.power_state.pwrStateResidencyTicks::UNDEFINED 102599423957000                       # Cumulative time (in ticks) in various power states
system.switch_cpus3.power_state.numTransitions            1                       # Number of power state transitions
system.switch_cpus3.power_state.pwrStateResidencyTicks::OFF 102599423957000                       # Cumulative time (in ticks) in various power states
system.switch_cpus0.dtb.walker.power_state.pwrStateResidencyTicks::UNDEFINED 102599423957000                       # Cumulative time (in ticks) in various power states
system.switch_cpus0.itb.walker.power_state.pwrStateResidencyTicks::UNDEFINED 102599423957000                       # Cumulative time (in ticks) in various power states
system.switch_cpus0.power_state.numTransitions            1                       # Number of power state transitions
system.switch_cpus0.power_state.pwrStateResidencyTicks::OFF 102599423957000                       # Cumulative time (in ticks) in various power states
system.switch_cpus1.dtb.walker.power_state.pwrStateResidencyTicks::UNDEFINED 102599423957000                       # Cumulative time (in ticks) in various power states
system.switch_cpus1.itb.walker.power_state.pwrStateResidencyTicks::UNDEFINED 102599423957000                       # Cumulative time (in ticks) in various power states
system.switch_cpus1.power_state.numTransitions            1                       # Number of power state transitions
system.switch_cpus1.power_state.pwrStateResidencyTicks::OFF 102599423957000                       # Cumulative time (in ticks) in various power states
system.sys_port_proxy.power_state.pwrStateResidencyTicks::UNDEFINED 102599423957000                       # Cumulative time (in ticks) in various power states
system.cpu2.dtb.walker.power_state.pwrStateResidencyTicks::UNDEFINED 102599423957000                       # Cumulative time (in ticks) in various power states
system.cpu2.interrupts.clk_domain.clock          8000                       # Clock period in ticks
system.cpu2.itb.walker.power_state.pwrStateResidencyTicks::UNDEFINED 102599423957000                       # Cumulative time (in ticks) in various power states
system.cpu2.power_state.pwrStateResidencyTicks::ON 102599423957000                       # Cumulative time (in ticks) in various power states
system.cpu3.dtb.walker.power_state.pwrStateResidencyTicks::UNDEFINED 102599423957000                       # Cumulative time (in ticks) in various power states
system.cpu3.interrupts.clk_domain.clock          8000                       # Clock period in ticks
system.cpu3.itb.walker.power_state.pwrStateResidencyTicks::UNDEFINED 102599423957000                       # Cumulative time (in ticks) in various power states
system.cpu3.power_state.pwrStateResidencyTicks::ON 102599423957000                       # Cumulative time (in ticks) in various power states
system.cpu0.dtb.walker.power_state.pwrStateResidencyTicks::UNDEFINED 102599423957000                       # Cumulative time (in ticks) in various power states
system.cpu0.interrupts.clk_domain.clock          8000                       # Clock period in ticks
system.cpu0.itb.walker.power_state.pwrStateResidencyTicks::UNDEFINED 102599423957000                       # Cumulative time (in ticks) in various power states
system.cpu0.power_state.pwrStateResidencyTicks::ON 102599423957000                       # Cumulative time (in ticks) in various power states
system.cpu1.dtb.walker.power_state.pwrStateResidencyTicks::UNDEFINED 102599423957000                       # Cumulative time (in ticks) in various power states
system.cpu1.interrupts.clk_domain.clock          8000                       # Clock period in ticks
system.cpu1.itb.walker.power_state.pwrStateResidencyTicks::UNDEFINED 102599423957000                       # Cumulative time (in ticks) in various power states
system.cpu1.power_state.pwrStateResidencyTicks::ON 102599423957000                       # Cumulative time (in ticks) in various power states
system.ruby.l1_cntrl0.sequencer.power_state.pwrStateResidencyTicks::UNDEFINED 102599423957000                       # Cumulative time (in ticks) in various power states
system.ruby.l1_cntrl0.power_state.pwrStateResidencyTicks::UNDEFINED 102599423957000                       # Cumulative time (in ticks) in various power states
system.ruby.l1_cntrl1.sequencer.power_state.pwrStateResidencyTicks::UNDEFINED 102599423957000                       # Cumulative time (in ticks) in various power states
system.ruby.l1_cntrl1.power_state.pwrStateResidencyTicks::UNDEFINED 102599423957000                       # Cumulative time (in ticks) in various power states
system.ruby.l1_cntrl2.sequencer.power_state.pwrStateResidencyTicks::UNDEFINED 102599423957000                       # Cumulative time (in ticks) in various power states
system.ruby.l1_cntrl2.power_state.pwrStateResidencyTicks::UNDEFINED 102599423957000                       # Cumulative time (in ticks) in various power states
system.ruby.l1_cntrl3.sequencer.power_state.pwrStateResidencyTicks::UNDEFINED 102599423957000                       # Cumulative time (in ticks) in various power states
system.ruby.l1_cntrl3.power_state.pwrStateResidencyTicks::UNDEFINED 102599423957000                       # Cumulative time (in ticks) in various power states
system.ruby.clk_domain.clock                      500                       # Clock period in ticks
system.ruby.dma_cntrl0.dma_sequencer.power_state.pwrStateResidencyTicks::UNDEFINED 102599423957000                       # Cumulative time (in ticks) in various power states
system.ruby.dma_cntrl0.power_state.pwrStateResidencyTicks::UNDEFINED 102599423957000                       # Cumulative time (in ticks) in various power states
system.ruby.network.netifs8.power_state.pwrStateResidencyTicks::UNDEFINED 102599423957000                       # Cumulative time (in ticks) in various power states
system.ruby.network.netifs9.power_state.pwrStateResidencyTicks::UNDEFINED 102599423957000                       # Cumulative time (in ticks) in various power states
system.ruby.network.netifs6.power_state.pwrStateResidencyTicks::UNDEFINED 102599423957000                       # Cumulative time (in ticks) in various power states
system.ruby.network.netifs7.power_state.pwrStateResidencyTicks::UNDEFINED 102599423957000                       # Cumulative time (in ticks) in various power states
system.ruby.network.netifs4.power_state.pwrStateResidencyTicks::UNDEFINED 102599423957000                       # Cumulative time (in ticks) in various power states
system.ruby.network.netifs5.power_state.pwrStateResidencyTicks::UNDEFINED 102599423957000                       # Cumulative time (in ticks) in various power states
system.ruby.network.netifs2.power_state.pwrStateResidencyTicks::UNDEFINED 102599423957000                       # Cumulative time (in ticks) in various power states
system.ruby.network.netifs3.power_state.pwrStateResidencyTicks::UNDEFINED 102599423957000                       # Cumulative time (in ticks) in various power states
system.ruby.network.netifs0.power_state.pwrStateResidencyTicks::UNDEFINED 102599423957000                       # Cumulative time (in ticks) in various power states
system.ruby.network.netifs1.power_state.pwrStateResidencyTicks::UNDEFINED 102599423957000                       # Cumulative time (in ticks) in various power states
system.ruby.network.power_state.pwrStateResidencyTicks::UNDEFINED 102599423957000                       # Cumulative time (in ticks) in various power states
system.ruby.network.int_links1.credit_link.power_state.pwrStateResidencyTicks::UNDEFINED 102599423957000                       # Cumulative time (in ticks) in various power states
system.ruby.network.int_links1.network_link.power_state.pwrStateResidencyTicks::UNDEFINED 102599423957000                       # Cumulative time (in ticks) in various power states
system.ruby.network.int_links0.credit_link.power_state.pwrStateResidencyTicks::UNDEFINED 102599423957000                       # Cumulative time (in ticks) in various power states
system.ruby.network.int_links0.network_link.power_state.pwrStateResidencyTicks::UNDEFINED 102599423957000                       # Cumulative time (in ticks) in various power states
system.ruby.network.int_links3.credit_link.power_state.pwrStateResidencyTicks::UNDEFINED 102599423957000                       # Cumulative time (in ticks) in various power states
system.ruby.network.int_links3.network_link.power_state.pwrStateResidencyTicks::UNDEFINED 102599423957000                       # Cumulative time (in ticks) in various power states
system.ruby.network.int_links2.credit_link.power_state.pwrStateResidencyTicks::UNDEFINED 102599423957000                       # Cumulative time (in ticks) in various power states
system.ruby.network.int_links2.network_link.power_state.pwrStateResidencyTicks::UNDEFINED 102599423957000                       # Cumulative time (in ticks) in various power states
system.ruby.network.int_links5.credit_link.power_state.pwrStateResidencyTicks::UNDEFINED 102599423957000                       # Cumulative time (in ticks) in various power states
system.ruby.network.int_links5.network_link.power_state.pwrStateResidencyTicks::UNDEFINED 102599423957000                       # Cumulative time (in ticks) in various power states
system.ruby.network.int_links4.credit_link.power_state.pwrStateResidencyTicks::UNDEFINED 102599423957000                       # Cumulative time (in ticks) in various power states
system.ruby.network.int_links4.network_link.power_state.pwrStateResidencyTicks::UNDEFINED 102599423957000                       # Cumulative time (in ticks) in various power states
system.ruby.network.int_links7.credit_link.power_state.pwrStateResidencyTicks::UNDEFINED 102599423957000                       # Cumulative time (in ticks) in various power states
system.ruby.network.int_links7.network_link.power_state.pwrStateResidencyTicks::UNDEFINED 102599423957000                       # Cumulative time (in ticks) in various power states
system.ruby.network.int_links6.credit_link.power_state.pwrStateResidencyTicks::UNDEFINED 102599423957000                       # Cumulative time (in ticks) in various power states
system.ruby.network.int_links6.network_link.power_state.pwrStateResidencyTicks::UNDEFINED 102599423957000                       # Cumulative time (in ticks) in various power states
system.ruby.network.ext_links9.credit_links0.power_state.pwrStateResidencyTicks::UNDEFINED 102599423957000                       # Cumulative time (in ticks) in various power states
system.ruby.network.ext_links9.credit_links1.power_state.pwrStateResidencyTicks::UNDEFINED 102599423957000                       # Cumulative time (in ticks) in various power states
system.ruby.network.ext_links9.network_links1.power_state.pwrStateResidencyTicks::UNDEFINED 102599423957000                       # Cumulative time (in ticks) in various power states
system.ruby.network.ext_links9.network_links0.power_state.pwrStateResidencyTicks::UNDEFINED 102599423957000                       # Cumulative time (in ticks) in various power states
system.ruby.network.ext_links8.credit_links0.power_state.pwrStateResidencyTicks::UNDEFINED 102599423957000                       # Cumulative time (in ticks) in various power states
system.ruby.network.ext_links8.credit_links1.power_state.pwrStateResidencyTicks::UNDEFINED 102599423957000                       # Cumulative time (in ticks) in various power states
system.ruby.network.ext_links8.network_links1.power_state.pwrStateResidencyTicks::UNDEFINED 102599423957000                       # Cumulative time (in ticks) in various power states
system.ruby.network.ext_links8.network_links0.power_state.pwrStateResidencyTicks::UNDEFINED 102599423957000                       # Cumulative time (in ticks) in various power states
system.ruby.network.ext_links7.credit_links0.power_state.pwrStateResidencyTicks::UNDEFINED 102599423957000                       # Cumulative time (in ticks) in various power states
system.ruby.network.ext_links7.credit_links1.power_state.pwrStateResidencyTicks::UNDEFINED 102599423957000                       # Cumulative time (in ticks) in various power states
system.ruby.network.ext_links7.network_links1.power_state.pwrStateResidencyTicks::UNDEFINED 102599423957000                       # Cumulative time (in ticks) in various power states
system.ruby.network.ext_links7.network_links0.power_state.pwrStateResidencyTicks::UNDEFINED 102599423957000                       # Cumulative time (in ticks) in various power states
system.ruby.network.ext_links6.credit_links0.power_state.pwrStateResidencyTicks::UNDEFINED 102599423957000                       # Cumulative time (in ticks) in various power states
system.ruby.network.ext_links6.credit_links1.power_state.pwrStateResidencyTicks::UNDEFINED 102599423957000                       # Cumulative time (in ticks) in various power states
system.ruby.network.ext_links6.network_links1.power_state.pwrStateResidencyTicks::UNDEFINED 102599423957000                       # Cumulative time (in ticks) in various power states
system.ruby.network.ext_links6.network_links0.power_state.pwrStateResidencyTicks::UNDEFINED 102599423957000                       # Cumulative time (in ticks) in various power states
system.ruby.network.ext_links5.credit_links0.power_state.pwrStateResidencyTicks::UNDEFINED 102599423957000                       # Cumulative time (in ticks) in various power states
system.ruby.network.ext_links5.credit_links1.power_state.pwrStateResidencyTicks::UNDEFINED 102599423957000                       # Cumulative time (in ticks) in various power states
system.ruby.network.ext_links5.network_links1.power_state.pwrStateResidencyTicks::UNDEFINED 102599423957000                       # Cumulative time (in ticks) in various power states
system.ruby.network.ext_links5.network_links0.power_state.pwrStateResidencyTicks::UNDEFINED 102599423957000                       # Cumulative time (in ticks) in various power states
system.ruby.network.ext_links4.credit_links0.power_state.pwrStateResidencyTicks::UNDEFINED 102599423957000                       # Cumulative time (in ticks) in various power states
system.ruby.network.ext_links4.credit_links1.power_state.pwrStateResidencyTicks::UNDEFINED 102599423957000                       # Cumulative time (in ticks) in various power states
system.ruby.network.ext_links4.network_links1.power_state.pwrStateResidencyTicks::UNDEFINED 102599423957000                       # Cumulative time (in ticks) in various power states
system.ruby.network.ext_links4.network_links0.power_state.pwrStateResidencyTicks::UNDEFINED 102599423957000                       # Cumulative time (in ticks) in various power states
system.ruby.network.ext_links3.credit_links0.power_state.pwrStateResidencyTicks::UNDEFINED 102599423957000                       # Cumulative time (in ticks) in various power states
system.ruby.network.ext_links3.credit_links1.power_state.pwrStateResidencyTicks::UNDEFINED 102599423957000                       # Cumulative time (in ticks) in various power states
system.ruby.network.ext_links3.network_links1.power_state.pwrStateResidencyTicks::UNDEFINED 102599423957000                       # Cumulative time (in ticks) in various power states
system.ruby.network.ext_links3.network_links0.power_state.pwrStateResidencyTicks::UNDEFINED 102599423957000                       # Cumulative time (in ticks) in various power states
system.ruby.network.ext_links2.credit_links0.power_state.pwrStateResidencyTicks::UNDEFINED 102599423957000                       # Cumulative time (in ticks) in various power states
system.ruby.network.ext_links2.credit_links1.power_state.pwrStateResidencyTicks::UNDEFINED 102599423957000                       # Cumulative time (in ticks) in various power states
system.ruby.network.ext_links2.network_links1.power_state.pwrStateResidencyTicks::UNDEFINED 102599423957000                       # Cumulative time (in ticks) in various power states
system.ruby.network.ext_links2.network_links0.power_state.pwrStateResidencyTicks::UNDEFINED 102599423957000                       # Cumulative time (in ticks) in various power states
system.ruby.network.ext_links1.credit_links0.power_state.pwrStateResidencyTicks::UNDEFINED 102599423957000                       # Cumulative time (in ticks) in various power states
system.ruby.network.ext_links1.credit_links1.power_state.pwrStateResidencyTicks::UNDEFINED 102599423957000                       # Cumulative time (in ticks) in various power states
system.ruby.network.ext_links1.network_links1.power_state.pwrStateResidencyTicks::UNDEFINED 102599423957000                       # Cumulative time (in ticks) in various power states
system.ruby.network.ext_links1.network_links0.power_state.pwrStateResidencyTicks::UNDEFINED 102599423957000                       # Cumulative time (in ticks) in various power states
system.ruby.network.ext_links0.credit_links0.power_state.pwrStateResidencyTicks::UNDEFINED 102599423957000                       # Cumulative time (in ticks) in various power states
system.ruby.network.ext_links0.credit_links1.power_state.pwrStateResidencyTicks::UNDEFINED 102599423957000                       # Cumulative time (in ticks) in various power states
system.ruby.network.ext_links0.network_links1.power_state.pwrStateResidencyTicks::UNDEFINED 102599423957000                       # Cumulative time (in ticks) in various power states
system.ruby.network.ext_links0.network_links0.power_state.pwrStateResidencyTicks::UNDEFINED 102599423957000                       # Cumulative time (in ticks) in various power states
system.ruby.network.routers2.power_state.pwrStateResidencyTicks::UNDEFINED 102599423957000                       # Cumulative time (in ticks) in various power states
system.ruby.network.routers3.power_state.pwrStateResidencyTicks::UNDEFINED 102599423957000                       # Cumulative time (in ticks) in various power states
system.ruby.network.routers0.power_state.pwrStateResidencyTicks::UNDEFINED 102599423957000                       # Cumulative time (in ticks) in various power states
system.ruby.network.routers1.power_state.pwrStateResidencyTicks::UNDEFINED 102599423957000                       # Cumulative time (in ticks) in various power states
system.ruby.io_controller.dma_sequencer.power_state.pwrStateResidencyTicks::UNDEFINED 102599423957000                       # Cumulative time (in ticks) in various power states
system.ruby.io_controller.power_state.pwrStateResidencyTicks::UNDEFINED 102599423957000                       # Cumulative time (in ticks) in various power states
system.ruby.power_state.pwrStateResidencyTicks::UNDEFINED 102599423957000                       # Cumulative time (in ticks) in various power states
system.ruby.memctrl_clk_domain.clock             1500                       # Clock period in ticks
system.ruby.dir_cntrl3.power_state.pwrStateResidencyTicks::UNDEFINED 102599423957000                       # Cumulative time (in ticks) in various power states
system.ruby.dir_cntrl2.power_state.pwrStateResidencyTicks::UNDEFINED 102599423957000                       # Cumulative time (in ticks) in various power states
[...]
system.iobus.pkt_count_system.ruby.l1_cntrl0.sequencer.mem-master-port::system.pc.south_bridge.speaker.pio         3312                       # Packet count per connected master and slave (bytes)
system.iobus.pkt_count_system.ruby.l1_cntrl0.sequencer.mem-master-port::system.pc.south_bridge.io_apic.pio          652                       # Packet count per connected master and slave (bytes)
system.iobus.pkt_count_system.ruby.l1_cntrl0.sequencer.mem-master-port::system.pc.i_dont_exist1.pio           12                       # Packet count per connected master and slave (bytes)
system.iobus.pkt_count_system.ruby.l1_cntrl0.sequencer.mem-master-port::system.pc.com_1.pio        27708                       # Packet count per connected master and slave (bytes)
system.iobus.pkt_count_system.ruby.l1_cntrl0.sequencer.mem-master-port::system.pc.fake_com_2.pio           12                       # Packet count per connected master and slave (bytes)
system.iobus.pkt_count_system.ruby.l1_cntrl0.sequencer.mem-master-port::system.pc.fake_com_3.pio           12                       # Packet count per connected master and slave (bytes)
system.iobus.pkt_count_system.ruby.l1_cntrl0.sequencer.mem-master-port::system.pc.fake_com_4.pio           12                       # Packet count per connected master and slave (bytes)
system.iobus.pkt_count_system.ruby.l1_cntrl0.sequencer.mem-master-port::system.ruby.l1_cntrl0.sequencer.pio-slave-port       218464                       # Packet count per connected master and slave (bytes)
system.iobus.pkt_count_system.ruby.l1_cntrl0.sequencer.mem-master-port::system.ruby.l1_cntrl1.sequencer.pio-slave-port         1070                       # Packet count per connected master and slave (bytes)
system.iobus.pkt_count_system.ruby.l1_cntrl0.sequencer.mem-master-port::system.ruby.l1_cntrl2.sequencer.pio-slave-port         1338                       # Packet count per connected master and slave (bytes)
system.iobus.pkt_count_system.ruby.l1_cntrl0.sequencer.mem-master-port::system.ruby.l1_cntrl3.sequencer.pio-slave-port          574                       # Packet count per connected master and slave (bytes)
system.iobus.pkt_count_system.ruby.l1_cntrl0.sequencer.mem-master-port::system.pc.pci_host.pio           74                       # Packet count per connected master and slave (bytes)
system.iobus.pkt_count_system.ruby.l1_cntrl0.sequencer.mem-master-port::total       273490                       # Packet count per connected master and slave (bytes)
system.iobus.pkt_count_system.ruby.l1_cntrl1.sequencer.mem-master-port::system.pc.south_bridge.ide.pio        33186                       # Packet count per connected master and slave (bytes)
system.iobus.pkt_count_system.ruby.l1_cntrl1.sequencer.mem-master-port::system.pc.south_bridge.keyboard.pio          220                       # Packet count per connected master and slave (bytes)
system.iobus.pkt_count_system.ruby.l1_cntrl1.sequencer.mem-master-port::system.pc.south_bridge.pic1.pio            8                       # Packet count per connected master and slave (bytes)
system.iobus.pkt_count_system.ruby.l1_cntrl1.sequencer.mem-master-port::system.pc.south_bridge.pic2.pio           14                       # Packet count per connected master and slave (bytes)
system.iobus.pkt_count_system.ruby.l1_cntrl1.sequencer.mem-master-port::system.pc.south_bridge.io_apic.pio          168                       # Packet count per connected master and slave (bytes)
system.iobus.pkt_count_system.ruby.l1_cntrl1.sequencer.mem-master-port::system.pc.behind_pci.pio            2                       # Packet count per connected master and slave (bytes)
system.iobus.pkt_count_system.ruby.l1_cntrl1.sequencer.mem-master-port::system.pc.com_1.pio       233408                       # Packet count per connected master and slave (bytes)
system.iobus.pkt_count_system.ruby.l1_cntrl1.sequencer.mem-master-port::system.ruby.l1_cntrl0.sequencer.pio-slave-port         2726                       # Packet count per connected master and slave (bytes)
system.iobus.pkt_count_system.ruby.l1_cntrl1.sequencer.mem-master-port::system.ruby.l1_cntrl1.sequencer.pio-slave-port       255932                       # Packet count per connected master and slave (bytes)
system.iobus.pkt_count_system.ruby.l1_cntrl1.sequencer.mem-master-port::system.ruby.l1_cntrl2.sequencer.pio-slave-port        13502                       # Packet count per connected master and slave (bytes)
system.iobus.pkt_count_system.ruby.l1_cntrl1.sequencer.mem-master-port::system.ruby.l1_cntrl3.sequencer.pio-slave-port         2254                       # Packet count per connected master and slave (bytes)
system.iobus.pkt_count_system.ruby.l1_cntrl1.sequencer.mem-master-port::system.pc.pci_host.pio          252                       # Packet count per connected master and slave (bytes)
system.iobus.pkt_count_system.ruby.l1_cntrl1.sequencer.mem-master-port::total       541672                       # Packet count per connected master and slave (bytes)
system.iobus.pkt_count_system.ruby.l1_cntrl2.sequencer.mem-master-port::system.pc.south_bridge.ide.pio        15198                       # Packet count per connected master and slave (bytes)
system.iobus.pkt_count_system.ruby.l1_cntrl2.sequencer.mem-master-port::system.pc.south_bridge.keyboard.pio           12                       # Packet count per connected master and slave (bytes)
system.iobus.pkt_count_system.ruby.l1_cntrl2.sequencer.mem-master-port::system.pc.south_bridge.pic1.pio            4                       # Packet count per connected master and slave (bytes)
system.iobus.pkt_count_system.ruby.l1_cntrl2.sequencer.mem-master-port::system.pc.south_bridge.io_apic.pio           20                       # Packet count per connected master and slave (bytes)
system.iobus.pkt_count_system.ruby.l1_cntrl2.sequencer.mem-master-port::system.pc.com_1.pio         4308                       # Packet count per connected master and slave (bytes)
system.iobus.pkt_count_system.ruby.l1_cntrl2.sequencer.mem-master-port::system.ruby.l1_cntrl0.sequencer.pio-slave-port         1010                       # Packet count per connected master and slave (bytes)
system.iobus.pkt_count_system.ruby.l1_cntrl2.sequencer.mem-master-port::system.ruby.l1_cntrl1.sequencer.pio-slave-port         1708                       # Packet count per connected master and slave (bytes)
system.iobus.pkt_count_system.ruby.l1_cntrl2.sequencer.mem-master-port::system.ruby.l1_cntrl2.sequencer.pio-slave-port       229922                       # Packet count per connected master and slave (bytes)
system.iobus.pkt_count_system.ruby.l1_cntrl2.sequencer.mem-master-port::system.ruby.l1_cntrl3.sequencer.pio-slave-port          704                       # Packet count per connected master and slave (bytes)
system.iobus.pkt_count_system.ruby.l1_cntrl2.sequencer.mem-master-port::total       252886                       # Packet count per connected master and slave (bytes)
system.iobus.pkt_count_system.ruby.l1_cntrl3.sequencer.mem-master-port::system.pc.south_bridge.ide.pio        20638                       # Packet count per connected master and slave (bytes)
system.iobus.pkt_count_system.ruby.l1_cntrl3.sequencer.mem-master-port::system.pc.south_bridge.keyboard.pio           36                       # Packet count per connected master and slave (bytes)
system.iobus.pkt_count_system.ruby.l1_cntrl3.sequencer.mem-master-port::system.pc.com_1.pio         3550                       # Packet count per connected master and slave (bytes)
system.iobus.pkt_count_system.ruby.l1_cntrl3.sequencer.mem-master-port::system.ruby.l1_cntrl0.sequencer.pio-slave-port          398                       # Packet count per connected master and slave (bytes)
system.iobus.pkt_count_system.ruby.l1_cntrl3.sequencer.mem-master-port::system.ruby.l1_cntrl1.sequencer.pio-slave-port          702                       # Packet count per connected master and slave (bytes)
system.iobus.pkt_count_system.ruby.l1_cntrl3.sequencer.mem-master-port::system.ruby.l1_cntrl2.sequencer.pio-slave-port          906                       # Packet count per connected master and slave (bytes)
system.iobus.pkt_count_system.ruby.l1_cntrl3.sequencer.mem-master-port::system.ruby.l1_cntrl3.sequencer.pio-slave-port       213478                       # Packet count per connected master and slave (bytes)
system.iobus.pkt_count_system.ruby.l1_cntrl3.sequencer.mem-master-port::total       239708                       # Packet count per connected master and slave (bytes)
system.iobus.pkt_count::total                 1365230                       # Packet count per connected master and slave (bytes)
system.iobus.pkt_size_system.pc.south_bridge.io_apic.int_master::system.ruby.l1_cntrl0.sequencer.pio-slave-port         1116                       # Cumulative packet size per connected master and slave (bytes)
system.iobus.pkt_size_system.pc.south_bridge.io_apic.int_master::system.ruby.l1_cntrl1.sequencer.pio-slave-port       113784                       # Cumulative packet size per connected master and slave (bytes)
system.iobus.pkt_size_system.pc.south_bridge.io_apic.int_master::system.ruby.l1_cntrl2.sequencer.pio-slave-port           12                       # Cumulative packet size per connected master and slave (bytes)
system.iobus.pkt_size_system.pc.south_bridge.io_apic.int_master::system.ruby.l1_cntrl3.sequencer.pio-slave-port           36                       # Cumulative packet size per connected master and slave (bytes)
system.iobus.pkt_size_system.pc.south_bridge.io_apic.int_master::total       114948                       # Cumulative packet size per connected master and slave (bytes)
system.iobus.pkt_size_system.ruby.l1_cntrl0.sequencer.mem-master-port::system.pc.south_bridge.cmos.pio           30                       # Cumulative packet size per connected master and slave (bytes)
system.iobus.pkt_size_system.ruby.l1_cntrl0.sequencer.mem-master-port::system.pc.south_bridge.ide.pio        11780                       # Cumulative packet size per connected master and slave (bytes)
system.iobus.pkt_size_system.ruby.l1_cntrl0.sequencer.mem-master-port::system.pc.south_bridge.pic1.pio           32                       # Cumulative packet size per connected master and slave (bytes)
system.iobus.pkt_size_system.ruby.l1_cntrl0.sequencer.mem-master-port::system.pc.south_bridge.pic2.pio           18                       # Cumulative packet size per connected master and slave (bytes)
system.iobus.pkt_size_system.ruby.l1_cntrl0.sequencer.mem-master-port::system.pc.south_bridge.pit.pio           32                       # Cumulative packet size per connected master and slave (bytes)
system.iobus.pkt_size_system.ruby.l1_cntrl0.sequencer.mem-master-port::system.pc.south_bridge.speaker.pio         1656                       # Cumulative packet size per connected master and slave (bytes)
system.iobus.pkt_size_system.ruby.l1_cntrl0.sequencer.mem-master-port::system.pc.south_bridge.io_apic.pio         1304                       # Cumulative packet size per connected master and slave (bytes)
system.iobus.pkt_size_system.ruby.l1_cntrl0.sequencer.mem-master-port::system.pc.i_dont_exist1.pio            6                       # Cumulative packet size per connected master and slave (bytes)
system.iobus.pkt_size_system.ruby.l1_cntrl0.sequencer.mem-master-port::system.pc.com_1.pio        13854                       # Cumulative packet size per connected master and slave (bytes)
system.iobus.pkt_size_system.ruby.l1_cntrl0.sequencer.mem-master-port::system.pc.fake_com_2.pio            6                       # Cumulative packet size per connected master and slave (bytes)
system.iobus.pkt_size_system.ruby.l1_cntrl0.sequencer.mem-master-port::system.pc.fake_com_3.pio            6                       # Cumulative packet size per connected master and slave (bytes)
system.iobus.pkt_size_system.ruby.l1_cntrl0.sequencer.mem-master-port::system.pc.fake_com_4.pio            6                       # Cumulative packet size per connected master and slave (bytes)
system.iobus.pkt_size_system.ruby.l1_cntrl0.sequencer.mem-master-port::system.ruby.l1_cntrl0.sequencer.pio-slave-port       436928                       # Cumulative packet size per connected master and slave (bytes)
system.iobus.pkt_size_system.ruby.l1_cntrl0.sequencer.mem-master-port::system.ruby.l1_cntrl1.sequencer.pio-slave-port         2140                       # Cumulative packet size per connected master and slave (bytes)
system.iobus.pkt_size_system.ruby.l1_cntrl0.sequencer.mem-master-port::system.ruby.l1_cntrl2.sequencer.pio-slave-port         2676                       # Cumulative packet size per connected master and slave (bytes)
system.iobus.pkt_size_system.ruby.l1_cntrl0.sequencer.mem-master-port::system.ruby.l1_cntrl3.sequencer.pio-slave-port         1148                       # Cumulative packet size per connected master and slave (bytes)
system.iobus.pkt_size_system.ruby.l1_cntrl0.sequencer.mem-master-port::system.pc.pci_host.pio           75                       # Cumulative packet size per connected master and slave (bytes)
system.iobus.pkt_size_system.ruby.l1_cntrl0.sequencer.mem-master-port::total       471697                       # Cumulative packet size per connected master and slave (bytes)
system.iobus.pkt_size_system.ruby.l1_cntrl1.sequencer.mem-master-port::system.pc.south_bridge.ide.pio        17680                       # Cumulative packet size per connected master and slave (bytes)
system.iobus.pkt_size_system.ruby.l1_cntrl1.sequencer.mem-master-port::system.pc.south_bridge.keyboard.pio          110                       # Cumulative packet size per connected master and slave (bytes)
system.iobus.pkt_size_system.ruby.l1_cntrl1.sequencer.mem-master-port::system.pc.south_bridge.pic1.pio            4                       # Cumulative packet size per connected master and slave (bytes)
system.iobus.pkt_size_system.ruby.l1_cntrl1.sequencer.mem-master-port::system.pc.south_bridge.pic2.pio            7                       # Cumulative packet size per connected master and slave (bytes)
system.iobus.pkt_size_system.ruby.l1_cntrl1.sequencer.mem-master-port::system.pc.south_bridge.io_apic.pio          336                       # Cumulative packet size per connected master and slave (bytes)
system.iobus.pkt_size_system.ruby.l1_cntrl1.sequencer.mem-master-port::system.pc.behind_pci.pio            1                       # Cumulative packet size per connected master and slave (bytes)
system.iobus.pkt_size_system.ruby.l1_cntrl1.sequencer.mem-master-port::system.pc.com_1.pio       116704                       # Cumulative packet size per connected master and slave (bytes)
system.iobus.pkt_size_system.ruby.l1_cntrl1.sequencer.mem-master-port::system.ruby.l1_cntrl0.sequencer.pio-slave-port         5452                       # Cumulative packet size per connected master and slave (bytes)
system.iobus.pkt_size_system.ruby.l1_cntrl1.sequencer.mem-master-port::system.ruby.l1_cntrl1.sequencer.pio-slave-port       511864                       # Cumulative packet size per connected master and slave (bytes)
system.iobus.pkt_size_system.ruby.l1_cntrl1.sequencer.mem-master-port::system.ruby.l1_cntrl2.sequencer.pio-slave-port        27004                       # Cumulative packet size per connected master and slave (bytes)
system.iobus.pkt_size_system.ruby.l1_cntrl1.sequencer.mem-master-port::system.ruby.l1_cntrl3.sequencer.pio-slave-port         4508                       # Cumulative packet size per connected master and slave (bytes)
system.iobus.pkt_size_system.ruby.l1_cntrl1.sequencer.mem-master-port::system.pc.pci_host.pio          369                       # Cumulative packet size per connected master and slave (bytes)
system.iobus.pkt_size_system.ruby.l1_cntrl1.sequencer.mem-master-port::total       684039                       # Cumulative packet size per connected master and slave (bytes)
system.iobus.pkt_size_system.ruby.l1_cntrl2.sequencer.mem-master-port::system.pc.south_bridge.ide.pio         8940                       # Cumulative packet size per connected master and slave (bytes)
system.iobus.pkt_size_system.ruby.l1_cntrl2.sequencer.mem-master-port::system.pc.south_bridge.keyboard.pio            6                       # Cumulative packet size per connected master and slave (bytes)
system.iobus.pkt_size_system.ruby.l1_cntrl2.sequencer.mem-master-port::system.pc.south_bridge.pic1.pio            2                       # Cumulative packet size per connected master and slave (bytes)
system.iobus.pkt_size_system.ruby.l1_cntrl2.sequencer.mem-master-port::system.pc.south_bridge.io_apic.pio           40                       # Cumulative packet size per connected master and slave (bytes)
system.iobus.pkt_size_system.ruby.l1_cntrl2.sequencer.mem-master-port::system.pc.com_1.pio         2154                       # Cumulative packet size per connected master and slave (bytes)
system.iobus.pkt_size_system.ruby.l1_cntrl2.sequencer.mem-master-port::system.ruby.l1_cntrl0.sequencer.pio-slave-port         2020                       # Cumulative packet size per connected master and slave (bytes)
system.iobus.pkt_size_system.ruby.l1_cntrl2.sequencer.mem-master-port::system.ruby.l1_cntrl1.sequencer.pio-slave-port         3416                       # Cumulative packet size per connected master and slave (bytes)
system.iobus.pkt_size_system.ruby.l1_cntrl2.sequencer.mem-master-port::system.ruby.l1_cntrl2.sequencer.pio-slave-port       459844                       # Cumulative packet size per connected master and slave (bytes)
system.iobus.pkt_size_system.ruby.l1_cntrl2.sequencer.mem-master-port::system.ruby.l1_cntrl3.sequencer.pio-slave-port         1408                       # Cumulative packet size per connected master and slave (bytes)
system.iobus.pkt_size_system.ruby.l1_cntrl2.sequencer.mem-master-port::total       477830                       # Cumulative packet size per connected master and slave (bytes)
system.iobus.pkt_size_system.ruby.l1_cntrl3.sequencer.mem-master-port::system.pc.south_bridge.ide.pio        12140                       # Cumulative packet size per connected master and slave (bytes)
system.iobus.pkt_size_system.ruby.l1_cntrl3.sequencer.mem-master-port::system.pc.south_bridge.keyboard.pio           18                       # Cumulative packet size per connected master and slave (bytes)
system.iobus.pkt_size_system.ruby.l1_cntrl3.sequencer.mem-master-port::system.pc.com_1.pio         1775                       # Cumulative packet size per connected master and slave (bytes)
system.iobus.pkt_size_system.ruby.l1_cntrl3.sequencer.mem-master-port::system.ruby.l1_cntrl0.sequencer.pio-slave-port          796                       # Cumulative packet size per connected master and slave (bytes)
system.iobus.pkt_size_system.ruby.l1_cntrl3.sequencer.mem-master-port::system.ruby.l1_cntrl1.sequencer.pio-slave-port         1404                       # Cumulative packet size per connected master and slave (bytes)
system.iobus.pkt_size_system.ruby.l1_cntrl3.sequencer.mem-master-port::system.ruby.l1_cntrl2.sequencer.pio-slave-port         1812                       # Cumulative packet size per connected master and slave (bytes)
system.iobus.pkt_size_system.ruby.l1_cntrl3.sequencer.mem-master-port::system.ruby.l1_cntrl3.sequencer.pio-slave-port       426956                       # Cumulative packet size per connected master and slave (bytes)
system.iobus.pkt_size_system.ruby.l1_cntrl3.sequencer.mem-master-port::total       444901                       # Cumulative packet size per connected master and slave (bytes)
system.iobus.pkt_size::total                  2193415                       # Cumulative packet size per connected master and slave (bytes)
system.iobus.power_state.pwrStateResidencyTicks::UNDEFINED 102599423957000                       # Cumulative time (in ticks) in various power states

---------- End Simulation Statistics   ----------
