
---------- Begin Simulation Statistics ----------
final_tick                               102950748045001                       # Number of ticks from beginning of simulation (restored from checkpoints and never reset)
host_inst_rate                                 708550                       # Simulator instruction rate (inst/s)
host_mem_usage                                1869768                       # Number of bytes of host memory used
host_op_rate                                   837770                       # Simulator op (including micro ops) rate (op/s)
host_seconds                                 10115.90                       # Real time elapsed on the host
host_tick_rate                              171556543                       # Simulator tick rate (ticks/s)
sim_freq                                 1000000000000                       # Frequency of simulated ticks
sim_insts                                  7167628356                       # Number of instructions simulated
sim_ops                                    8474797695                       # Number of ops (including micro ops) simulated
sim_seconds                                  1.735450                       # Number of seconds simulated
sim_ticks                                1735449559001                       # Number of ticks simulated
system.cpu0.committedInsts                          0                       # Number of instructions committed
system.cpu0.dtb.rdAccesses                          0                       # TLB accesses on read requests
system.cpu0.dtb.rdMisses                            0                       # TLB misses on read requests
system.cpu0.dtb.wrAccesses                          0                       # TLB accesses on write requests
system.cpu0.dtb.wrMisses                            0                       # TLB misses on write requests
system.cpu0.itb.rdAccesses                          0                       # TLB accesses on read requests
system.cpu0.itb.rdMisses                            0                       # TLB misses on read requests
system.cpu0.itb.wrAccesses                          0                       # TLB accesses on write requests
system.cpu0.itb.wrMisses                            0                       # TLB misses on write requests
system.cpu0.kern.inst.arm                           0                       # number of arm instructions executed
system.cpu0.kern.inst.quiesce                       0                       # number of quiesce instructions executed
system.cpu0.numCoalescedMMIO                        0                       # number of coalesced memory mapped IO requests
system.cpu0.numCycles                               0                       # number of cpu cycles simulated
system.cpu0.numExitSignal                           0                       # exits due to signal delivery
system.cpu0.numHalt                                 0                       # number of VM exits due to wait for interrupt instructions
system.cpu0.numHypercalls                           0                       # number of hypercalls
system.cpu0.numIO                                   0                       # number of VM exits due to legacy IO
system.cpu0.numInterrupts                           0                       # number of interrupts delivered
system.cpu0.numMMIO                                 0                       # number of VM exits due to memory mapped IO
system.cpu0.numVMExits                              0                       # total number of KVM exits
system.cpu0.numVMHalfEntries                        0                       # number of KVM entries to finalize pending operations
system.cpu0.numWorkItemsCompleted                   0                       # number of work items this cpu completed
system.cpu0.numWorkItemsStarted                     0                       # number of work items this cpu started
system.cpu1.committedInsts                          0                       # Number of instructions committed
system.cpu1.dtb.rdAccesses                          0                       # TLB accesses on read requests
system.cpu1.dtb.rdMisses                            0                       # TLB misses on read requests
system.cpu1.dtb.wrAccesses                          0                       # TLB accesses on write requests
system.cpu1.dtb.wrMisses                            0                       # TLB misses on write requests
system.cpu1.itb.rdAccesses                          0                       # TLB accesses on read requests
system.cpu1.itb.rdMisses                            0                       # TLB misses on read requests
system.cpu1.itb.wrAccesses                          0                       # TLB accesses on write requests
system.cpu1.itb.wrMisses                            0                       # TLB misses on write requests
system.cpu1.kern.inst.arm                           0                       # number of arm instructions executed
system.cpu1.kern.inst.quiesce                       0                       # number of quiesce instructions executed
system.cpu1.numCoalescedMMIO                        0                       # number of coalesced memory mapped IO requests
system.cpu1.numCycles                               0                       # number of cpu cycles simulated
system.cpu1.numExitSignal                           0                       # exits due to signal delivery
system.cpu1.numHalt                                 0                       # number of VM exits due to wait for interrupt instructions
system.cpu1.numHypercalls                           0                       # number of hypercalls
system.cpu1.numIO                                   0                       # number of VM exits due to legacy IO
system.cpu1.numInterrupts                           0                       # number of interrupts delivered
system.cpu1.numMMIO                                 0                       # number of VM exits due to memory mapped IO
system.cpu1.numVMExits                              0                       # total number of KVM exits
system.cpu1.numVMHalfEntries                        0                       # number of KVM entries to finalize pending operations
system.cpu1.numWorkItemsCompleted                   0                       # number of work items this cpu completed
system.cpu1.numWorkItemsStarted                     0                       # number of work items this cpu started
system.cpu2.committedInsts                          0                       # Number of instructions committed
system.cpu2.dtb.rdAccesses                          0                       # TLB accesses on read requests
system.cpu2.dtb.rdMisses                            0                       # TLB misses on read requests
system.cpu2.dtb.wrAccesses                          0                       # TLB accesses on write requests
system.cpu2.dtb.wrMisses                            0                       # TLB misses on write requests
system.cpu2.itb.rdAccesses                          0                       # TLB accesses on read requests
system.cpu2.itb.rdMisses                            0                       # TLB misses on read requests
system.cpu2.itb.wrAccesses                          0                       # TLB accesses on write requests
system.cpu2.itb.wrMisses                            0                       # TLB misses on write requests
system.cpu2.kern.inst.arm                           0                       # number of arm instructions executed
system.cpu2.kern.inst.quiesce                       0                       # number of quiesce instructions executed
system.cpu2.numCoalescedMMIO                        0                       # number of coalesced memory mapped IO requests
system.cpu2.numCycles                               0                       # number of cpu cycles simulated
system.cpu2.numExitSignal                           0                       # exits due to signal delivery
system.cpu2.numHalt                                 0                       # number of VM exits due to wait for interrupt instructions
system.cpu2.numHypercalls                           0                       # number of hypercalls
system.cpu2.numIO                                   0                       # number of VM exits due to legacy IO
system.cpu2.numInterrupts                           0                       # number of interrupts delivered
system.cpu2.numMMIO                                 0                       # number of VM exits due to memory mapped IO
system.cpu2.numVMExits                              0                       # total number of KVM exits
system.cpu2.numVMHalfEntries                        0                       # number of KVM entries to finalize pending operations
system.cpu2.numWorkItemsCompleted                   0                       # number of work items this cpu completed
system.cpu2.numWorkItemsStarted                     0                       # number of work items this cpu started
system.cpu3.committedInsts                          0                       # Number of instructions committed
system.cpu3.dtb.rdAccesses                          0                       # TLB accesses on read requests
system.cpu3.dtb.rdMisses                            0                       # TLB misses on read requests
system.cpu3.dtb.wrAccesses                          0                       # TLB accesses on write requests
system.cpu3.dtb.wrMisses                            0                       # TLB misses on write requests
system.cpu3.itb.rdAccesses                          0                       # TLB accesses on read requests
system.cpu3.itb.rdMisses                            0                       # TLB misses on read requests
system.cpu3.itb.wrAccesses                          0                       # TLB accesses on write requests
system.cpu3.itb.wrMisses                            0                       # TLB misses on write requests
system.cpu3.kern.inst.arm                           0                       # number of arm instructions executed
system.cpu3.kern.inst.quiesce                       0                       # number of quiesce instructions executed
system.cpu3.numCoalescedMMIO                        0                       # number of coalesced memory mapped IO requests
system.cpu3.numCycles                               0                       # number of cpu cycles simulated
system.cpu3.numExitSignal                           0                       # exits due to signal delivery
system.cpu3.numHalt                                 0                       # number of VM exits due to wait for interrupt instructions
system.cpu3.numHypercalls                           0                       # number of hypercalls
system.cpu3.numIO                                   0                       # number of VM exits due to legacy IO
system.cpu3.numInterrupts                           0                       # number of interrupts delivered
system.cpu3.numMMIO                                 0                       # number of VM exits due to memory mapped IO
system.cpu3.numVMExits                              0                       # total number of KVM exits
system.cpu3.numVMHalfEntries                        0                       # number of KVM entries to finalize pending operations
system.cpu3.numWorkItemsCompleted                   0                       # number of work items this cpu completed
system.cpu3.numWorkItemsStarted                     0                       # number of work items this cpu started
system.pc.south_bridge.ide.disks.dma_read_bytes       253952                       # Number of bytes transfered via DMA reads (not PRD).
system.pc.south_bridge.ide.disks.dma_read_full_pages           62                       # Number of full page size DMA reads (not PRD).
system.pc.south_bridge.ide.disks.dma_read_txs           62                       # Number of DMA read transactions (not PRD).
system.pc.south_bridge.ide.disks.dma_write_bytes        53248                       # Number of bytes transfered via DMA writes.
system.pc.south_bridge.ide.disks.dma_write_full_pages           13                       # Number of full page size DMA writes.
system.pc.south_bridge.ide.disks.dma_write_txs           13                       # Number of DMA write transactions.
system.ruby.DMA_Controller.I.allocI_load |        3979    100.00%    100.00% |           0      0.00%    100.00%
system.ruby.DMA_Controller.I.allocI_load::total         3979                      
system.ruby.DMA_Controller.I.allocI_store |         832    100.00%    100.00% |           0      0.00%    100.00%
system.ruby.DMA_Controller.I.allocI_store::total          832                      
system.ruby.DMA_Controller.I.deallocfwdfrom_in |        3851    100.00%    100.00% |           0      0.00%    100.00%
system.ruby.DMA_Controller.I.deallocfwdfrom_in::total         3851                      
system.ruby.DMA_Controller.M.allocTBE    |         832    100.00%    100.00% |           0      0.00%    100.00%
system.ruby.DMA_Controller.M.allocTBE::total          832                      
system.ruby.DMA_Controller.M.externalstoreMrespfrom_in |         832    100.00%    100.00% |           0      0.00%    100.00%
system.ruby.DMA_Controller.M.externalstoreMrespfrom_in::total          832                      
system.ruby.DMA_Controller.M_evict.Stallmandatory_in |       12384    100.00%    100.00% |           0      0.00%    100.00%
system.ruby.DMA_Controller.M_evict.Stallmandatory_in::total        12384                      
system.ruby.DMA_Controller.S.SloadSEvent |          63    100.00%    100.00% |           0      0.00%    100.00%
system.ruby.DMA_Controller.S.SloadSEvent::total           63                      
system.ruby.DMA_Controller.S.allocTBE    |        3019    100.00%    100.00% |           0      0.00%    100.00%
system.ruby.DMA_Controller.S.allocTBE::total         3019                      
system.ruby.DMA_Controller.S.externalloadSrespfrom_in |        3979    100.00%    100.00% |           0      0.00%    100.00%
system.ruby.DMA_Controller.S.externalloadSrespfrom_in::total         3979                      
system.ruby.DMA_Controller.S_evict.Stallmandatory_in |        8878    100.00%    100.00% |           0      0.00%    100.00%
system.ruby.DMA_Controller.S_evict.Stallmandatory_in::total         8878                      
system.ruby.DMA_Controller.SloadSEvent   |          63    100.00%    100.00% |           0      0.00%    100.00%
system.ruby.DMA_Controller.SloadSEvent::total           63                      
system.ruby.DMA_Controller.Stallmandatory_in |       21262    100.00%    100.00% |           0      0.00%    100.00%
system.ruby.DMA_Controller.Stallmandatory_in::total        21262                      
system.ruby.DMA_Controller.allocI_load   |        3979    100.00%    100.00% |           0      0.00%    100.00%
system.ruby.DMA_Controller.allocI_load::total         3979                      
system.ruby.DMA_Controller.allocI_store  |         832    100.00%    100.00% |           0      0.00%    100.00%
system.ruby.DMA_Controller.allocI_store::total          832                      
system.ruby.DMA_Controller.allocTBE      |        3851    100.00%    100.00% |           0      0.00%    100.00%
system.ruby.DMA_Controller.allocTBE::total         3851                      
system.ruby.DMA_Controller.deallocfwdfrom_in |        3851    100.00%    100.00% |           0      0.00%    100.00%
system.ruby.DMA_Controller.deallocfwdfrom_in::total         3851                      
system.ruby.DMA_Controller.externalloadSrespfrom_in |        3979    100.00%    100.00% |           0      0.00%    100.00%
system.ruby.DMA_Controller.externalloadSrespfrom_in::total         3979                      
system.ruby.DMA_Controller.externalstoreMrespfrom_in |         832    100.00%    100.00% |           0      0.00%    100.00%
system.ruby.DMA_Controller.externalstoreMrespfrom_in::total          832                      
system.ruby.Directory_Controller.I.allocTBE |     6131657     25.88%     25.88% |     5947166     25.10%     50.98% |     5910300     24.95%     75.93% |     5703983     24.07%    100.00%
system.ruby.Directory_Controller.I.allocTBE::total     23693106                      
system.ruby.Directory_Controller.I.deallocTBE |     6130789     25.88%     25.88% |     5946323     25.10%     50.98% |     5909457     24.95%     75.93% |     5703138     24.07%    100.00%
system.ruby.Directory_Controller.I.deallocTBE::total     23689707                      
system.ruby.Directory_Controller.I_GetML1C1C1_0.Stallreqto_in |           3     23.08%     23.08% |           0      0.00%     23.08% |           4     30.77%     53.85% |           6     46.15%    100.00%
system.ruby.Directory_Controller.I_GetML1C1C1_0.Stallreqto_in::total           13                      
system.ruby.Directory_Controller.I_GetSL1C1C1_0.Stallreqto_in |        2844      7.16%      7.16% |       33453     84.22%     91.38% |        2281      5.74%     97.12% |        1142      2.88%    100.00%
system.ruby.Directory_Controller.I_GetSL1C1C1_0.Stallreqto_in::total        39720                      
system.ruby.Directory_Controller.M.allocTBE |     3300365     25.18%     25.18% |     3211264     24.50%     49.69% |     3241379     24.73%     74.42% |     3351843     25.58%    100.00%
system.ruby.Directory_Controller.M.allocTBE::total     13104851                      
system.ruby.Directory_Controller.M.deallocTBE |     3300539     25.18%     25.18% |     3211409     24.50%     49.69% |     3241531     24.73%     74.42% |     3351995     25.58%    100.00%
system.ruby.Directory_Controller.M.deallocTBE::total     13105474                      
system.ruby.Directory_Controller.M_GetM.Progress |       13595     17.38%     17.38% |       16994     21.72%     39.10% |        6654      8.51%     47.61% |       40986     52.39%    100.00%
system.ruby.Directory_Controller.M_GetM.Progress::total        78229                      
system.ruby.Directory_Controller.M_GetM.Stallreqto_in |           7      9.09%      9.09% |           1      1.30%     10.39% |          17     22.08%     32.47% |          52     67.53%    100.00%
system.ruby.Directory_Controller.M_GetM.Stallreqto_in::total           77                      
system.ruby.Directory_Controller.M_GetS.Progress |       66960     37.98%     37.98% |       32338     18.34%     56.32% |       23233     13.18%     69.50% |       53767     30.50%    100.00%
system.ruby.Directory_Controller.M_GetS.Progress::total       176298                      
system.ruby.Directory_Controller.M_GetS.Stallreqto_in |         151      5.03%      5.03% |         701     23.36%     28.39% |         803     26.76%     55.15% |        1346     44.85%    100.00%
system.ruby.Directory_Controller.M_GetS.Stallreqto_in::total         3001                      
system.ruby.Directory_Controller.M_GetS_WBL1C1C1_0.Stallreqto_in |       10239     29.31%     29.31% |       13000     37.21%     66.52% |        5377     15.39%     81.91% |        6320     18.09%    100.00%
system.ruby.Directory_Controller.M_GetS_WBL1C1C1_0.Stallreqto_in::total        34936                      
system.ruby.Directory_Controller.M_PutML1C1C1_0.Stallreqto_in |          10     27.03%     27.03% |          12     32.43%     59.46% |           7     18.92%     78.38% |           8     21.62%    100.00%
system.ruby.Directory_Controller.M_PutML1C1C1_0.Stallreqto_in::total           37                      
system.ruby.Directory_Controller.Progress |       84246     29.58%     29.58% |       60242     21.15%     50.74% |       35960     12.63%     63.37% |      104320     36.63%    100.00%
system.ruby.Directory_Controller.Progress::total       284768                      
system.ruby.Directory_Controller.S.allocTBE |     7551816     26.29%     26.29% |     7326824     25.51%     51.80% |     7144112     24.87%     76.68% |     6698468     23.32%    100.00%
system.ruby.Directory_Controller.S.allocTBE::total     28721220                      
system.ruby.Directory_Controller.S.deallocTBE |     7552510     26.29%     26.29% |     7327522     25.51%     51.80% |     7144803     24.87%     76.68% |     6699161     23.32%    100.00%
system.ruby.Directory_Controller.S.deallocTBE::total     28723996                      
system.ruby.Directory_Controller.S_GetM.Progress |        3691     12.21%     12.21% |       10910     36.08%     48.28% |        6073     20.08%     68.36% |        9567     31.64%    100.00%
system.ruby.Directory_Controller.S_GetM.Progress::total        30241                      
system.ruby.Directory_Controller.S_GetM.Stallreqto_in |         879     32.91%     32.91% |         292     10.93%     43.84% |         558     20.89%     64.73% |         942     35.27%    100.00%
system.ruby.Directory_Controller.S_GetM.Stallreqto_in::total         2671                      
system.ruby.Directory_Controller.S_GetM.allocTBE |       65467     36.34%     36.34% |       39907     22.15%     58.49% |       22368     12.42%     70.90% |       52419     29.10%    100.00%
system.ruby.Directory_Controller.S_GetM.allocTBE::total       180161                      
system.ruby.Directory_Controller.S_GetM.deallocTBE |       65467     36.34%     36.34% |       39907     22.15%     58.49% |       22368     12.42%     70.90% |       52419     29.10%    100.00%
system.ruby.Directory_Controller.S_GetM.deallocTBE::total       180161                      
system.ruby.Directory_Controller.S_GetML1C1C1_0.Stallreqto_in |         418     43.45%     43.45% |          35      3.64%     47.09% |          81      8.42%     55.51% |         428     44.49%    100.00%
system.ruby.Directory_Controller.S_GetML1C1C1_0.Stallreqto_in::total          962                      
system.ruby.Directory_Controller.S_GetML1C1C1_1.Stallreqto_in |          10     16.95%     16.95% |          12     20.34%     37.29% |          17     28.81%     66.10% |          20     33.90%    100.00%
system.ruby.Directory_Controller.S_GetML1C1C1_1.Stallreqto_in::total           59                      
system.ruby.Directory_Controller.S_GetML1C1C1_2.Stallreqto_in |           0      0.00%      0.00% |           0      0.00%      0.00% |           0      0.00%      0.00% |         132    100.00%    100.00%
system.ruby.Directory_Controller.S_GetML1C1C1_2.Stallreqto_in::total          132                      
system.ruby.Directory_Controller.S_GetSL1C1C1_0.Stallreqto_in |       13623     26.71%     26.71% |       25415     49.82%     76.53% |        6294     12.34%     88.87% |        5680     11.13%    100.00%
system.ruby.Directory_Controller.S_GetSL1C1C1_0.Stallreqto_in::total        51012                      
system.ruby.Directory_Controller.Stallreqto_in |       28184     21.25%     21.25% |       72921     54.98%     76.24% |       15439     11.64%     87.88% |       16076     12.12%    100.00%
system.ruby.Directory_Controller.Stallreqto_in::total       132620                      
system.ruby.Directory_Controller.allocTBE |    17049305     25.95%     25.95% |    16525161     25.15%     51.10% |    16318159     24.84%     75.94% |    15806713     24.06%    100.00%
system.ruby.Directory_Controller.allocTBE::total     65699338                      
system.ruby.Directory_Controller.deallocTBE |    17049305     25.95%     25.95% |    16525161     25.15%     51.10% |    16318159     24.84%     75.94% |    15806713     24.06%    100.00%
system.ruby.Directory_Controller.deallocTBE::total     65699338                      
system.ruby.IFETCH.hit_latency_hist_seqr::bucket_size            1                      
system.ruby.IFETCH.hit_latency_hist_seqr::max_bucket            9                      
system.ruby.IFETCH.hit_latency_hist_seqr::samples   2956723229                      
system.ruby.IFETCH.hit_latency_hist_seqr |  2956723229    100.00%    100.00% |           0      0.00%    100.00% |           0      0.00%    100.00% |           0      0.00%    100.00% |           0      0.00%    100.00% |           0      0.00%    100.00% |           0      0.00%    100.00% |           0      0.00%    100.00% |           0      0.00%    100.00% |           0      0.00%    100.00%
system.ruby.IFETCH.hit_latency_hist_seqr::total   2956723229                      
system.ruby.IFETCH.latency_hist_seqr::bucket_size            1                      
system.ruby.IFETCH.latency_hist_seqr::max_bucket            9                      
system.ruby.IFETCH.latency_hist_seqr::samples   2966847110                      
system.ruby.IFETCH.latency_hist_seqr     |  2966847110    100.00%    100.00% |           0      0.00%    100.00% |           0      0.00%    100.00% |           0      0.00%    100.00% |           0      0.00%    100.00% |           0      0.00%    100.00% |           0      0.00%    100.00% |           0      0.00%    100.00% |           0      0.00%    100.00% |           0      0.00%    100.00%
system.ruby.IFETCH.latency_hist_seqr::total   2966847110                      
system.ruby.IFETCH.miss_latency_hist_seqr::bucket_size            1                      
system.ruby.IFETCH.miss_latency_hist_seqr::max_bucket            9                      
system.ruby.IFETCH.miss_latency_hist_seqr::samples     10123881                      
system.ruby.IFETCH.miss_latency_hist_seqr |    10123881    100.00%    100.00% |           0      0.00%    100.00% |           0      0.00%    100.00% |           0      0.00%    100.00% |           0      0.00%    100.00% |           0      0.00%    100.00% |           0      0.00%    100.00% |           0      0.00%    100.00% |           0      0.00%    100.00% |           0      0.00%    100.00%
system.ruby.IFETCH.miss_latency_hist_seqr::total     10123881                      
system.ruby.L1Cache_Controller.I.allocI_load |     4543519     19.91%     19.91% |     8479258     37.15%     57.06% |     4711422     20.64%     77.70% |     5088966     22.30%    100.00%
system.ruby.L1Cache_Controller.I.allocI_load::total     22823165                      
system.ruby.L1Cache_Controller.I.allocI_store |     1690133     23.97%     23.97% |     1816190     25.75%     49.72% |     1681952     23.85%     73.57% |     1863557     26.43%    100.00%
system.ruby.L1Cache_Controller.I.allocI_store::total      7051832                      
system.ruby.L1Cache_Controller.I.deallocfwdfrom_in |     6232635     20.87%     20.87% |    10294429     34.46%     55.33% |     6392390     21.40%     76.73% |     6951531     23.27%    100.00%
system.ruby.L1Cache_Controller.I.deallocfwdfrom_in::total     29870985                      
system.ruby.L1Cache_Controller.I_store.Progress |        6762     50.21%     50.21% |        2089     15.51%     65.72% |        2487     18.47%     84.18% |        2130     15.82%    100.00%
system.ruby.L1Cache_Controller.I_store.Progress::total        13468                      
system.ruby.L1Cache_Controller.I_store.Stallfwdfrom_in |         129     27.22%     27.22% |          91     19.20%     46.41% |         107     22.57%     68.99% |         147     31.01%    100.00%
system.ruby.L1Cache_Controller.I_store.Stallfwdfrom_in::total          474                      
system.ruby.L1Cache_Controller.M.MloadMEvent |   110520486     25.08%     25.08% |   109394484     24.83%     49.91% |   112179072     25.46%     75.36% |   108561531     24.64%    100.00%
system.ruby.L1Cache_Controller.M.MloadMEvent::total    440655573                      
system.ruby.L1Cache_Controller.M.MstoreMEvent |    84424224     24.39%     24.39% |    90120017     26.04%     50.43% |    84964188     24.55%     74.98% |    86596038     25.02%    100.00%
system.ruby.L1Cache_Controller.M.MstoreMEvent::total    346104467                      
system.ruby.L1Cache_Controller.M.allocTBE |     3207742     24.48%     24.48% |     3161580     24.13%     48.61% |     3299865     25.18%     73.79% |     3434765     26.21%    100.00%
system.ruby.L1Cache_Controller.M.allocTBE::total     13103952                      
system.ruby.L1Cache_Controller.M.externalstoreMrespfrom_in |     3207903     24.48%     24.48% |     3161775     24.13%     48.61% |     3300004     25.18%     73.79% |     3434893     26.21%    100.00%
system.ruby.L1Cache_Controller.M.externalstoreMrespfrom_in::total     13104575                      
system.ruby.L1Cache_Controller.M_evict.Stallmandatory_in |       13663     24.14%     24.14% |       13079     23.11%     47.25% |       14971     26.45%     73.70% |       14885     26.30%    100.00%
system.ruby.L1Cache_Controller.M_evict.Stallmandatory_in::total        56598                      
system.ruby.L1Cache_Controller.M_evict_x_I.Progress |           1     25.00%     25.00% |           0      0.00%     25.00% |           0      0.00%     25.00% |           3     75.00%    100.00%
system.ruby.L1Cache_Controller.M_evict_x_I.Progress::total            4                      
system.ruby.L1Cache_Controller.M_evict_x_I.Stallmandatory_in |           3     20.00%     20.00% |           0      0.00%     20.00% |           0      0.00%     20.00% |          12     80.00%    100.00%
system.ruby.L1Cache_Controller.M_evict_x_I.Stallmandatory_in::total           15                      
system.ruby.L1Cache_Controller.MloadMEvent |   110520486     25.08%     25.08% |   109394484     24.83%     49.91% |   112179072     25.46%     75.36% |   108561531     24.64%    100.00%
system.ruby.L1Cache_Controller.MloadMEvent::total    440655573                      
system.ruby.L1Cache_Controller.MstoreMEvent |    84424224     24.39%     24.39% |    90120017     26.04%     50.43% |    84964188     24.55%     74.98% |    86596038     25.02%    100.00%
system.ruby.L1Cache_Controller.MstoreMEvent::total    346104467                      
system.ruby.L1Cache_Controller.Progress  |     1583477     25.28%     25.28% |     1389855     22.19%     47.47% |     1666907     26.61%     74.08% |     1623357     25.92%    100.00%
system.ruby.L1Cache_Controller.Progress::total      6263596                      
system.ruby.L1Cache_Controller.S.SloadSEvent |   750276187     23.96%     23.96% |   817870137     26.12%     50.08% |   769288121     24.57%     74.65% |   793745119     25.35%    100.00%
system.ruby.L1Cache_Controller.S.SloadSEvent::total   3131179564                      
system.ruby.L1Cache_Controller.S.allocTBE |     4592922     19.97%     19.97% |     8520583     37.05%     57.03% |     4752982     20.67%     77.69% |     5129557     22.31%    100.00%
system.ruby.L1Cache_Controller.S.allocTBE::total     22996044                      
system.ruby.L1Cache_Controller.S.deallocTBE |       50259     28.51%     28.51% |       42149     23.91%     52.42% |       42405     24.06%     76.48% |       41455     23.52%    100.00%
system.ruby.L1Cache_Controller.S.deallocTBE::total       176268                      
system.ruby.L1Cache_Controller.S.externalloadSrespfrom_in |     4543519     19.91%     19.91% |     8479258     37.15%     57.06% |     4711422     20.64%     77.70% |     5088966     22.30%    100.00%
system.ruby.L1Cache_Controller.S.externalloadSrespfrom_in::total     22823165                      
system.ruby.L1Cache_Controller.S_evict.Progress |          14     46.67%     46.67% |           6     20.00%     66.67% |           5     16.67%     83.33% |           5     16.67%    100.00%
system.ruby.L1Cache_Controller.S_evict.Progress::total           30                      
system.ruby.L1Cache_Controller.S_evict.Stallmandatory_in |        5297     22.76%     22.76% |        6196     26.62%     49.38% |        5732     24.63%     74.01% |        6050     25.99%    100.00%
system.ruby.L1Cache_Controller.S_evict.Stallmandatory_in::total        23275                      
system.ruby.L1Cache_Controller.S_evict_x_I.Progress |          16     25.40%     25.40% |          19     30.16%     55.56% |          10     15.87%     71.43% |          18     28.57%    100.00%
system.ruby.L1Cache_Controller.S_evict_x_I.Progress::total           63                      
system.ruby.L1Cache_Controller.S_evict_x_I.Stallmandatory_in |          48     23.65%     23.65% |          62     30.54%     54.19% |          31     15.27%     69.46% |          62     30.54%    100.00%
system.ruby.L1Cache_Controller.S_evict_x_I.Stallmandatory_in::total          203                      
system.ruby.L1Cache_Controller.S_store.Progress |     1576683     25.23%     25.23% |     1387741     22.20%     47.43% |     1664405     26.63%     74.06% |     1621201     25.94%    100.00%
system.ruby.L1Cache_Controller.S_store.Progress::total      6250030                      
system.ruby.L1Cache_Controller.S_store.Stallfwdfrom_in |          77     27.02%     27.02% |          77     27.02%     54.04% |          78     27.37%     81.40% |          53     18.60%    100.00%
system.ruby.L1Cache_Controller.S_store.Stallfwdfrom_in::total          285                      
system.ruby.L1Cache_Controller.S_store_GetM_Ack_AD.Progress |           1    100.00%    100.00% |           0      0.00%    100.00% |           0      0.00%    100.00% |           0      0.00%    100.00%
system.ruby.L1Cache_Controller.S_store_GetM_Ack_AD.Progress::total            1                      
system.ruby.L1Cache_Controller.SloadSEvent |   750276187     23.96%     23.96% |   817870137     26.12%     50.08% |   769288121     24.57%     74.65% |   793745119     25.35%    100.00%
system.ruby.L1Cache_Controller.SloadSEvent::total   3131179564                      
system.ruby.L1Cache_Controller.Stallfwdfrom_in |         206     27.14%     27.14% |         168     22.13%     49.28% |         185     24.37%     73.65% |         200     26.35%    100.00%
system.ruby.L1Cache_Controller.Stallfwdfrom_in::total          759                      
system.ruby.L1Cache_Controller.Stallmandatory_in |       19011     23.74%     23.74% |       19337     24.14%     47.88% |       20734     25.89%     73.77% |       21009     26.23%    100.00%
system.ruby.L1Cache_Controller.Stallmandatory_in::total        80091                      
system.ruby.L1Cache_Controller.allocI_load |     4543519     19.91%     19.91% |     8479258     37.15%     57.06% |     4711422     20.64%     77.70% |     5088966     22.30%    100.00%
system.ruby.L1Cache_Controller.allocI_load::total     22823165                      
system.ruby.L1Cache_Controller.allocI_store |     1690133     23.97%     23.97% |     1816190     25.75%     49.72% |     1681952     23.85%     73.57% |     1863557     26.43%    100.00%
system.ruby.L1Cache_Controller.allocI_store::total      7051832                      
system.ruby.L1Cache_Controller.allocTBE  |     7800664     21.61%     21.61% |    11682163     32.36%     53.97% |     8052847     22.31%     76.28% |     8564322     23.72%    100.00%
system.ruby.L1Cache_Controller.allocTBE::total     36099996                      
system.ruby.L1Cache_Controller.deallocTBE |       50259     28.51%     28.51% |       42149     23.91%     52.42% |       42405     24.06%     76.48% |       41455     23.52%    100.00%
system.ruby.L1Cache_Controller.deallocTBE::total       176268                      
system.ruby.L1Cache_Controller.deallocfwdfrom_in |     6232635     20.87%     20.87% |    10294429     34.46%     55.33% |     6392390     21.40%     76.73% |     6951531     23.27%    100.00%
system.ruby.L1Cache_Controller.deallocfwdfrom_in::total     29870985                      
system.ruby.L1Cache_Controller.externalloadSrespfrom_in |     4543519     19.91%     19.91% |     8479258     37.15%     57.06% |     4711422     20.64%     77.70% |     5088966     22.30%    100.00%
system.ruby.L1Cache_Controller.externalloadSrespfrom_in::total     22823165                      
system.ruby.L1Cache_Controller.externalstoreMrespfrom_in |     3207903     24.48%     24.48% |     3161775     24.13%     48.61% |     3300004     25.18%     73.79% |     3434893     26.21%    100.00%
system.ruby.L1Cache_Controller.externalstoreMrespfrom_in::total     13104575                      
system.ruby.LD.hit_latency_hist_seqr::bucket_size            1                      
system.ruby.LD.hit_latency_hist_seqr::max_bucket            9                      
system.ruby.LD.hit_latency_hist_seqr::samples    615111908                      
system.ruby.LD.hit_latency_hist_seqr     |   615111908    100.00%    100.00% |           0      0.00%    100.00% |           0      0.00%    100.00% |           0      0.00%    100.00% |           0      0.00%    100.00% |           0      0.00%    100.00% |           0      0.00%    100.00% |           0      0.00%    100.00% |           0      0.00%    100.00% |           0      0.00%    100.00%
system.ruby.LD.hit_latency_hist_seqr::total    615111908                      
system.ruby.LD.latency_hist_seqr::bucket_size            1                      
system.ruby.LD.latency_hist_seqr::max_bucket            9                      
system.ruby.LD.latency_hist_seqr::samples    627811192                      
system.ruby.LD.latency_hist_seqr         |   627811192    100.00%    100.00% |           0      0.00%    100.00% |           0      0.00%    100.00% |           0      0.00%    100.00% |           0      0.00%    100.00% |           0      0.00%    100.00% |           0      0.00%    100.00% |           0      0.00%    100.00% |           0      0.00%    100.00% |           0      0.00%    100.00%
system.ruby.LD.latency_hist_seqr::total     627811192                      
system.ruby.LD.miss_latency_hist_seqr::bucket_size            1                      
system.ruby.LD.miss_latency_hist_seqr::max_bucket            9                      
system.ruby.LD.miss_latency_hist_seqr::samples     12699284                      
system.ruby.LD.miss_latency_hist_seqr    |    12699284    100.00%    100.00% |           0      0.00%    100.00% |           0      0.00%    100.00% |           0      0.00%    100.00% |           0      0.00%    100.00% |           0      0.00%    100.00% |           0      0.00%    100.00% |           0      0.00%    100.00% |           0      0.00%    100.00% |           0      0.00%    100.00%
system.ruby.LD.miss_latency_hist_seqr::total     12699284                      
system.ruby.Locked_RMW_Read.hit_latency_hist_seqr::bucket_size            1                      
system.ruby.Locked_RMW_Read.hit_latency_hist_seqr::max_bucket            9                      
system.ruby.Locked_RMW_Read.hit_latency_hist_seqr::samples      1183095                      
system.ruby.Locked_RMW_Read.hit_latency_hist_seqr |     1183095    100.00%    100.00% |           0      0.00%    100.00% |           0      0.00%    100.00% |           0      0.00%    100.00% |           0      0.00%    100.00% |           0      0.00%    100.00% |           0      0.00%    100.00% |           0      0.00%    100.00% |           0      0.00%    100.00% |           0      0.00%    100.00%
system.ruby.Locked_RMW_Read.hit_latency_hist_seqr::total      1183095                      
system.ruby.Locked_RMW_Read.latency_hist_seqr::bucket_size            1                      
system.ruby.Locked_RMW_Read.latency_hist_seqr::max_bucket            9                      
system.ruby.Locked_RMW_Read.latency_hist_seqr::samples      1586182                      
system.ruby.Locked_RMW_Read.latency_hist_seqr |     1586182    100.00%    100.00% |           0      0.00%    100.00% |           0      0.00%    100.00% |           0      0.00%    100.00% |           0      0.00%    100.00% |           0      0.00%    100.00% |           0      0.00%    100.00% |           0      0.00%    100.00% |           0      0.00%    100.00% |           0      0.00%    100.00%
system.ruby.Locked_RMW_Read.latency_hist_seqr::total      1586182                      
system.ruby.Locked_RMW_Read.miss_latency_hist_seqr::bucket_size            1                      
system.ruby.Locked_RMW_Read.miss_latency_hist_seqr::max_bucket            9                      
system.ruby.Locked_RMW_Read.miss_latency_hist_seqr::samples       403087                      
system.ruby.Locked_RMW_Read.miss_latency_hist_seqr |      403087    100.00%    100.00% |           0      0.00%    100.00% |           0      0.00%    100.00% |           0      0.00%    100.00% |           0      0.00%    100.00% |           0      0.00%    100.00% |           0      0.00%    100.00% |           0      0.00%    100.00% |           0      0.00%    100.00% |           0      0.00%    100.00%
system.ruby.Locked_RMW_Read.miss_latency_hist_seqr::total       403087                      
system.ruby.Locked_RMW_Write.hit_latency_hist_seqr::bucket_size            1                      
system.ruby.Locked_RMW_Write.hit_latency_hist_seqr::max_bucket            9                      
system.ruby.Locked_RMW_Write.hit_latency_hist_seqr::samples      1586182                      
system.ruby.Locked_RMW_Write.hit_latency_hist_seqr |     1586182    100.00%    100.00% |           0      0.00%    100.00% |           0      0.00%    100.00% |           0      0.00%    100.00% |           0      0.00%    100.00% |           0      0.00%    100.00% |           0      0.00%    100.00% |           0      0.00%    100.00% |           0      0.00%    100.00% |           0      0.00%    100.00%
system.ruby.Locked_RMW_Write.hit_latency_hist_seqr::total      1586182                      
system.ruby.Locked_RMW_Write.latency_hist_seqr::bucket_size            1                      
system.ruby.Locked_RMW_Write.latency_hist_seqr::max_bucket            9                      
system.ruby.Locked_RMW_Write.latency_hist_seqr::samples      1586182                      
system.ruby.Locked_RMW_Write.latency_hist_seqr |     1586182    100.00%    100.00% |           0      0.00%    100.00% |           0      0.00%    100.00% |           0      0.00%    100.00% |           0      0.00%    100.00% |           0      0.00%    100.00% |           0      0.00%    100.00% |           0      0.00%    100.00% |           0      0.00%    100.00% |           0      0.00%    100.00%
system.ruby.Locked_RMW_Write.latency_hist_seqr::total      1586182                      
system.ruby.RMW_Read.hit_latency_hist_seqr::bucket_size            1                      
system.ruby.RMW_Read.hit_latency_hist_seqr::max_bucket            9                      
system.ruby.RMW_Read.hit_latency_hist_seqr::samples     16320484                      
system.ruby.RMW_Read.hit_latency_hist_seqr |    16320484    100.00%    100.00% |           0      0.00%    100.00% |           0      0.00%    100.00% |           0      0.00%    100.00% |           0      0.00%    100.00% |           0      0.00%    100.00% |           0      0.00%    100.00% |           0      0.00%    100.00% |           0      0.00%    100.00% |           0      0.00%    100.00%
system.ruby.RMW_Read.hit_latency_hist_seqr::total     16320484                      
system.ruby.RMW_Read.latency_hist_seqr::bucket_size            1                      
system.ruby.RMW_Read.latency_hist_seqr::max_bucket            9                      
system.ruby.RMW_Read.latency_hist_seqr::samples     16808937                      
system.ruby.RMW_Read.latency_hist_seqr   |    16808937    100.00%    100.00% |           0      0.00%    100.00% |           0      0.00%    100.00% |           0      0.00%    100.00% |           0      0.00%    100.00% |           0      0.00%    100.00% |           0      0.00%    100.00% |           0      0.00%    100.00% |           0      0.00%    100.00% |           0      0.00%    100.00%
system.ruby.RMW_Read.latency_hist_seqr::total     16808937                      
system.ruby.RMW_Read.miss_latency_hist_seqr::bucket_size            1                      
system.ruby.RMW_Read.miss_latency_hist_seqr::max_bucket            9                      
system.ruby.RMW_Read.miss_latency_hist_seqr::samples       488453                      
system.ruby.RMW_Read.miss_latency_hist_seqr |      488453    100.00%    100.00% |           0      0.00%    100.00% |           0      0.00%    100.00% |           0      0.00%    100.00% |           0      0.00%    100.00% |           0      0.00%    100.00% |           0      0.00%    100.00% |           0      0.00%    100.00% |           0      0.00%    100.00% |           0      0.00%    100.00%
system.ruby.RMW_Read.miss_latency_hist_seqr::total       488453                      
system.ruby.ST.hit_latency_hist_seqr::bucket_size            1                      
system.ruby.ST.hit_latency_hist_seqr::max_bucket            9                      
system.ruby.ST.hit_latency_hist_seqr::samples    327014706                      
system.ruby.ST.hit_latency_hist_seqr     |   327014706    100.00%    100.00% |           0      0.00%    100.00% |           0      0.00%    100.00% |           0      0.00%    100.00% |           0      0.00%    100.00% |           0      0.00%    100.00% |           0      0.00%    100.00% |           0      0.00%    100.00% |           0      0.00%    100.00% |           0      0.00%    100.00%
system.ruby.ST.hit_latency_hist_seqr::total    327014706                      
system.ruby.ST.latency_hist_seqr::bucket_size            1                      
system.ruby.ST.latency_hist_seqr::max_bucket            9                      
system.ruby.ST.latency_hist_seqr::samples    339227741                      
system.ruby.ST.latency_hist_seqr         |   339227741    100.00%    100.00% |           0      0.00%    100.00% |           0      0.00%    100.00% |           0      0.00%    100.00% |           0      0.00%    100.00% |           0      0.00%    100.00% |           0      0.00%    100.00% |           0      0.00%    100.00% |           0      0.00%    100.00% |           0      0.00%    100.00%
system.ruby.ST.latency_hist_seqr::total     339227741                      
system.ruby.ST.miss_latency_hist_seqr::bucket_size            1                      
system.ruby.ST.miss_latency_hist_seqr::max_bucket            9                      
system.ruby.ST.miss_latency_hist_seqr::samples     12213035                      
system.ruby.ST.miss_latency_hist_seqr    |    12213035    100.00%    100.00% |           0      0.00%    100.00% |           0      0.00%    100.00% |           0      0.00%    100.00% |           0      0.00%    100.00% |           0      0.00%    100.00% |           0      0.00%    100.00% |           0      0.00%    100.00% |           0      0.00%    100.00% |           0      0.00%    100.00%
system.ruby.ST.miss_latency_hist_seqr::total     12213035                      
system.ruby.dir_cntrl0.fwdFrom.avg_buf_msgs     0.013545                       # Average number of messages in buffer
system.ruby.dir_cntrl0.fwdFrom.avg_stall_time  2999.982474                       # Average number of cycles messages are stalled in this MB
system.ruby.dir_cntrl0.reqTo.avg_buf_msgs     0.004974                       # Average number of messages in buffer
system.ruby.dir_cntrl0.reqTo.avg_stall_time  5556.129309                       # Average number of cycles messages are stalled in this MB
system.ruby.dir_cntrl0.requestToMemory.avg_buf_msgs     0.003602                       # Average number of messages in buffer
system.ruby.dir_cntrl0.requestToMemory.avg_stall_time   499.999999                       # Average number of cycles messages are stalled in this MB
system.ruby.dir_cntrl0.respFrom.avg_buf_msgs     0.015940                       # Average number of messages in buffer
system.ruby.dir_cntrl0.respFrom.avg_stall_time  3000.437691                       # Average number of cycles messages are stalled in this MB
system.ruby.dir_cntrl0.respTo.avg_buf_msgs     0.000043                       # Average number of messages in buffer
system.ruby.dir_cntrl0.respTo.avg_stall_time  7231.552204                       # Average number of cycles messages are stalled in this MB
system.ruby.dir_cntrl0.responseFromMemory.avg_buf_msgs     0.003611                       # Average number of messages in buffer
system.ruby.dir_cntrl0.responseFromMemory.avg_stall_time   499.999975                       # Average number of cycles messages are stalled in this MB
system.ruby.dir_cntrl1.fwdFrom.avg_buf_msgs     0.013061                       # Average number of messages in buffer
system.ruby.dir_cntrl1.fwdFrom.avg_stall_time  2999.982277                       # Average number of cycles messages are stalled in this MB
system.ruby.dir_cntrl1.reqTo.avg_buf_msgs     0.004960                       # Average number of messages in buffer
system.ruby.dir_cntrl1.reqTo.avg_stall_time  5308.579576                       # Average number of cycles messages are stalled in this MB
system.ruby.dir_cntrl1.requestToMemory.avg_buf_msgs     0.003505                       # Average number of messages in buffer
system.ruby.dir_cntrl1.requestToMemory.avg_stall_time   499.999998                       # Average number of cycles messages are stalled in this MB
system.ruby.dir_cntrl1.respFrom.avg_buf_msgs     0.015518                       # Average number of messages in buffer
system.ruby.dir_cntrl1.respFrom.avg_stall_time  3000.441520                       # Average number of cycles messages are stalled in this MB
system.ruby.dir_cntrl1.respTo.avg_buf_msgs     0.000029                       # Average number of messages in buffer
system.ruby.dir_cntrl1.respTo.avg_stall_time  7296.553711                       # Average number of cycles messages are stalled in this MB
system.ruby.dir_cntrl1.responseFromMemory.avg_buf_msgs     0.003513                       # Average number of messages in buffer
system.ruby.dir_cntrl1.responseFromMemory.avg_stall_time   499.999944                       # Average number of cycles messages are stalled in this MB
system.ruby.dir_cntrl2.fwdFrom.avg_buf_msgs     0.012844                       # Average number of messages in buffer
system.ruby.dir_cntrl2.fwdFrom.avg_stall_time  2999.959872                       # Average number of cycles messages are stalled in this MB
system.ruby.dir_cntrl2.reqTo.avg_buf_msgs     0.004739                       # Average number of messages in buffer
system.ruby.dir_cntrl2.reqTo.avg_stall_time  5639.681882                       # Average number of cycles messages are stalled in this MB
system.ruby.dir_cntrl2.requestToMemory.avg_buf_msgs     0.003493                       # Average number of messages in buffer
system.ruby.dir_cntrl2.requestToMemory.avg_stall_time   499.999985                       # Average number of cycles messages are stalled in this MB
system.ruby.dir_cntrl2.respFrom.avg_buf_msgs     0.015396                       # Average number of messages in buffer
system.ruby.dir_cntrl2.respFrom.avg_stall_time  3000.780686                       # Average number of cycles messages are stalled in this MB
system.ruby.dir_cntrl2.respTo.avg_buf_msgs     0.000017                       # Average number of messages in buffer
system.ruby.dir_cntrl2.respTo.avg_stall_time  8468.218498                       # Average number of cycles messages are stalled in this MB
system.ruby.dir_cntrl2.responseFromMemory.avg_buf_msgs     0.003501                       # Average number of messages in buffer
system.ruby.dir_cntrl2.responseFromMemory.avg_stall_time   499.999944                       # Average number of cycles messages are stalled in this MB
system.ruby.dir_cntrl3.fwdFrom.avg_buf_msgs     0.012447                       # Average number of messages in buffer
system.ruby.dir_cntrl3.fwdFrom.avg_stall_time  2999.968536                       # Average number of cycles messages are stalled in this MB
system.ruby.dir_cntrl3.reqTo.avg_buf_msgs     0.004585                       # Average number of messages in buffer
system.ruby.dir_cntrl3.reqTo.avg_stall_time  5553.482266                       # Average number of cycles messages are stalled in this MB
system.ruby.dir_cntrl3.requestToMemory.avg_buf_msgs     0.003433                       # Average number of messages in buffer
system.ruby.dir_cntrl3.requestToMemory.avg_stall_time   499.999999                       # Average number of cycles messages are stalled in this MB
system.ruby.dir_cntrl3.respFrom.avg_buf_msgs     0.014910                       # Average number of messages in buffer
system.ruby.dir_cntrl3.respFrom.avg_stall_time  3000.898193                       # Average number of cycles messages are stalled in this MB
system.ruby.dir_cntrl3.respTo.avg_buf_msgs     0.000045                       # Average number of messages in buffer
system.ruby.dir_cntrl3.respTo.avg_stall_time  8058.884489                       # Average number of cycles messages are stalled in this MB
system.ruby.dir_cntrl3.responseFromMemory.avg_buf_msgs     0.003442                       # Average number of messages in buffer
system.ruby.dir_cntrl3.responseFromMemory.avg_stall_time   499.999975                       # Average number of cycles messages are stalled in this MB
system.ruby.dma_cntrl0.cache.demand_accesses            0                       # Number of cache demand accesses
system.ruby.dma_cntrl0.cache.demand_hits            0                       # Number of cache demand hits
system.ruby.dma_cntrl0.cache.demand_misses            0                       # Number of cache demand misses
system.ruby.dma_cntrl0.fully_busy_cycles         5048                       # cycles for which number of transistions == max transitions
system.ruby.dma_cntrl0.fwdFrom.avg_buf_msgs     0.000001                       # Average number of messages in buffer
system.ruby.dma_cntrl0.fwdFrom.avg_stall_time  6969.401278                       # Average number of cycles messages are stalled in this MB
system.ruby.dma_cntrl0.mandatoryQueue.avg_buf_msgs     0.000075                       # Average number of messages in buffer
system.ruby.dma_cntrl0.mandatoryQueue.avg_stall_time 54543.988504                       # Average number of cycles messages are stalled in this MB
system.ruby.dma_cntrl0.reqTo.avg_buf_msgs     0.000083                       # Average number of messages in buffer
system.ruby.dma_cntrl0.reqTo.avg_stall_time  3168.918499                       # Average number of cycles messages are stalled in this MB
system.ruby.dma_cntrl0.respFrom.avg_buf_msgs     0.000001                       # Average number of messages in buffer
system.ruby.dma_cntrl0.respFrom.avg_stall_time 217061.118364                       # Average number of cycles messages are stalled in this MB
system.ruby.dma_cntrl0.respTo.avg_buf_msgs     0.000000                       # Average number of messages in buffer
system.ruby.dma_cntrl0.respTo.avg_stall_time   800.593182                       # Average number of cycles messages are stalled in this MB
system.ruby.hit_latency_hist_seqr::bucket_size            1                      
system.ruby.hit_latency_hist_seqr::max_bucket            9                      
system.ruby.hit_latency_hist_seqr::samples   3917939604                      
system.ruby.hit_latency_hist_seqr        |  3917939604    100.00%    100.00% |           0      0.00%    100.00% |           0      0.00%    100.00% |           0      0.00%    100.00% |           0      0.00%    100.00% |           0      0.00%    100.00% |           0      0.00%    100.00% |           0      0.00%    100.00% |           0      0.00%    100.00% |           0      0.00%    100.00%
system.ruby.hit_latency_hist_seqr::total   3917939604                      
system.ruby.io_controller.cache.demand_accesses            0                       # Number of cache demand accesses
system.ruby.io_controller.cache.demand_hits            0                       # Number of cache demand hits
system.ruby.io_controller.cache.demand_misses            0                       # Number of cache demand misses
system.ruby.l1_cntrl0.cache.demand_accesses            0                       # Number of cache demand accesses
system.ruby.l1_cntrl0.cache.demand_hits             0                       # Number of cache demand hits
system.ruby.l1_cntrl0.cache.demand_misses            0                       # Number of cache demand misses
system.ruby.l1_cntrl0.fully_busy_cycles            72                       # cycles for which number of transistions == max transitions
system.ruby.l1_cntrl0.fwdFrom.avg_buf_msgs    26.087880                       # Average number of messages in buffer
system.ruby.l1_cntrl0.fwdFrom.avg_stall_time  6384.482955                       # Average number of cycles messages are stalled in this MB
system.ruby.l1_cntrl0.mandatoryQueue.avg_buf_msgs     0.330585                       # Average number of messages in buffer
system.ruby.l1_cntrl0.mandatoryQueue.avg_stall_time  2958.835568                       # Average number of cycles messages are stalled in this MB
system.ruby.l1_cntrl0.reqTo.avg_buf_msgs     0.004009                       # Average number of messages in buffer
system.ruby.l1_cntrl0.reqTo.avg_stall_time   500.000034                       # Average number of cycles messages are stalled in this MB
system.ruby.l1_cntrl0.respFrom.avg_buf_msgs     0.002252                       # Average number of messages in buffer
system.ruby.l1_cntrl0.respFrom.avg_stall_time 16479.051618                       # Average number of cycles messages are stalled in this MB
system.ruby.l1_cntrl0.respTo.avg_buf_msgs     0.000104                       # Average number of messages in buffer
system.ruby.l1_cntrl0.respTo.avg_stall_time   999.960428                       # Average number of cycles messages are stalled in this MB
system.ruby.l1_cntrl1.cache.demand_accesses            0                       # Number of cache demand accesses
system.ruby.l1_cntrl1.cache.demand_hits             0                       # Number of cache demand hits
system.ruby.l1_cntrl1.cache.demand_misses            0                       # Number of cache demand misses
system.ruby.l1_cntrl1.fully_busy_cycles            36                       # cycles for which number of transistions == max transitions
system.ruby.l1_cntrl1.fwdFrom.avg_buf_msgs    23.122986                       # Average number of messages in buffer
system.ruby.l1_cntrl1.fwdFrom.avg_stall_time  6529.606341                       # Average number of cycles messages are stalled in this MB
system.ruby.l1_cntrl1.mandatoryQueue.avg_buf_msgs     0.377458                       # Average number of messages in buffer
system.ruby.l1_cntrl1.mandatoryQueue.avg_stall_time  4076.580005                       # Average number of cycles messages are stalled in this MB
system.ruby.l1_cntrl1.reqTo.avg_buf_msgs     0.006299                       # Average number of messages in buffer
system.ruby.l1_cntrl1.reqTo.avg_stall_time   500.000314                       # Average number of cycles messages are stalled in this MB
system.ruby.l1_cntrl1.respFrom.avg_buf_msgs     0.003367                       # Average number of messages in buffer
system.ruby.l1_cntrl1.respFrom.avg_stall_time 16525.781188                       # Average number of cycles messages are stalled in this MB
system.ruby.l1_cntrl1.respTo.avg_buf_msgs     0.000098                       # Average number of messages in buffer
system.ruby.l1_cntrl1.respTo.avg_stall_time  1000.003423                       # Average number of cycles messages are stalled in this MB
system.ruby.l1_cntrl2.cache.demand_accesses            0                       # Number of cache demand accesses
system.ruby.l1_cntrl2.cache.demand_hits             0                       # Number of cache demand hits
system.ruby.l1_cntrl2.cache.demand_misses            0                       # Number of cache demand misses
system.ruby.l1_cntrl2.fully_busy_cycles            53                       # cycles for which number of transistions == max transitions
system.ruby.l1_cntrl2.fwdFrom.avg_buf_msgs    31.871179                       # Average number of messages in buffer
system.ruby.l1_cntrl2.fwdFrom.avg_stall_time  6476.170519                       # Average number of cycles messages are stalled in this MB
system.ruby.l1_cntrl2.mandatoryQueue.avg_buf_msgs     0.338491                       # Average number of messages in buffer
system.ruby.l1_cntrl2.mandatoryQueue.avg_stall_time  3039.519999                       # Average number of cycles messages are stalled in this MB
system.ruby.l1_cntrl2.reqTo.avg_buf_msgs     0.004128                       # Average number of messages in buffer
system.ruby.l1_cntrl2.reqTo.avg_stall_time   499.987246                       # Average number of cycles messages are stalled in this MB
system.ruby.l1_cntrl2.respFrom.avg_buf_msgs     0.002322                       # Average number of messages in buffer
system.ruby.l1_cntrl2.respFrom.avg_stall_time 16315.911970                       # Average number of cycles messages are stalled in this MB
system.ruby.l1_cntrl2.respTo.avg_buf_msgs     0.000102                       # Average number of messages in buffer
system.ruby.l1_cntrl2.respTo.avg_stall_time   999.967007                       # Average number of cycles messages are stalled in this MB
system.ruby.l1_cntrl3.cache.demand_accesses            0                       # Number of cache demand accesses
system.ruby.l1_cntrl3.cache.demand_hits             0                       # Number of cache demand hits
system.ruby.l1_cntrl3.cache.demand_misses            0                       # Number of cache demand misses
system.ruby.l1_cntrl3.fully_busy_cycles            36                       # cycles for which number of transistions == max transitions
system.ruby.l1_cntrl3.fwdFrom.avg_buf_msgs    22.787646                       # Average number of messages in buffer
system.ruby.l1_cntrl3.fwdFrom.avg_stall_time  6645.374847                       # Average number of cycles messages are stalled in this MB
system.ruby.l1_cntrl3.mandatoryQueue.avg_buf_msgs     0.349409                       # Average number of messages in buffer
system.ruby.l1_cntrl3.mandatoryQueue.avg_stall_time  3380.045610                       # Average number of cycles messages are stalled in this MB
system.ruby.l1_cntrl3.reqTo.avg_buf_msgs     0.004438                       # Average number of messages in buffer
system.ruby.l1_cntrl3.reqTo.avg_stall_time   500.000007                       # Average number of cycles messages are stalled in this MB
system.ruby.l1_cntrl3.respFrom.avg_buf_msgs     0.002471                       # Average number of messages in buffer
system.ruby.l1_cntrl3.respFrom.avg_stall_time 16496.663965                       # Average number of cycles messages are stalled in this MB
system.ruby.l1_cntrl3.respTo.avg_buf_msgs     0.000103                       # Average number of messages in buffer
system.ruby.l1_cntrl3.respTo.avg_stall_time  1000.388728                       # Average number of cycles messages are stalled in this MB
system.ruby.latency_hist_seqr::bucket_size            1                      
system.ruby.latency_hist_seqr::max_bucket            9                      
system.ruby.latency_hist_seqr::samples     3953867344                      
system.ruby.latency_hist_seqr            |  3953867344    100.00%    100.00% |           0      0.00%    100.00% |           0      0.00%    100.00% |           0      0.00%    100.00% |           0      0.00%    100.00% |           0      0.00%    100.00% |           0      0.00%    100.00% |           0      0.00%    100.00% |           0      0.00%    100.00% |           0      0.00%    100.00%
system.ruby.latency_hist_seqr::total       3953867344                      
system.ruby.miss_latency_hist_seqr::bucket_size            1                      
system.ruby.miss_latency_hist_seqr::max_bucket            9                      
system.ruby.miss_latency_hist_seqr::samples     35927740                      
system.ruby.miss_latency_hist_seqr       |    35927740    100.00%    100.00% |           0      0.00%    100.00% |           0      0.00%    100.00% |           0      0.00%    100.00% |           0      0.00%    100.00% |           0      0.00%    100.00% |           0      0.00%    100.00% |           0      0.00%    100.00% |           0      0.00%    100.00% |           0      0.00%    100.00%
system.ruby.miss_latency_hist_seqr::total     35927740                      
system.ruby.network.average_flit_latency    16.672930                      
system.ruby.network.average_flit_network_latency    12.484816                      
system.ruby.network.average_flit_queueing_latency     4.188114                      
system.ruby.network.average_flit_vnet_latency |   15.003755                       |    5.009410                       |   10.505781                      
system.ruby.network.average_flit_vqueue_latency |    5.942325                       |    6.000002                       |    1.006133                      
system.ruby.network.average_hops             1.002476                      
system.ruby.network.average_packet_latency    15.922421                      
system.ruby.network.average_packet_network_latency    12.427883                      
system.ruby.network.average_packet_queueing_latency     3.494538                      
system.ruby.network.average_packet_vnet_latency |   24.774822                       |    5.009410                       |    8.931828                      
system.ruby.network.average_packet_vqueue_latency |    5.894740                       |    6.000002                       |    1.004284                      
system.ruby.network.avg_link_utilization     0.283747                      
system.ruby.network.avg_vc_load          |    0.116833     41.17%     41.17% |    0.013734      4.84%     46.01% |    0.013059      4.60%     50.62% |    0.013042      4.60%     55.21% |    0.019480      6.87%     62.08% |    0.002178      0.77%     62.85% |    0.002165      0.76%     63.61% |    0.002165      0.76%     64.37% |    0.074665     26.31%     90.69% |    0.009574      3.37%     94.06% |    0.008426      2.97%     97.03% |    0.008428      2.97%    100.00%
system.ruby.network.avg_vc_load::total       0.283747                      
system.ruby.network.ext_in_link_utilization    328015174                      
system.ruby.network.ext_out_link_utilization    328015174                      
system.ruby.network.flit_network_latency |  2716329074                       |   150540575                       |  1228339494                      
system.ruby.network.flit_queueing_latency |  1075818029                       |   180309388                       |   117637390                      
system.ruby.network.flits_injected       |   181043278     55.19%     55.19% |    30051555      9.16%     64.36% |   116920341     35.64%    100.00%
system.ruby.network.flits_injected::total    328015174                      
system.ruby.network.flits_received       |   181043278     55.19%     55.19% |    30051555      9.16%     64.36% |   116920341     35.64%    100.00%
system.ruby.network.flits_received::total    328015174                      
system.ruby.network.int_link_utilization    328827436                      
system.ruby.network.packet_network_latency |   906953767                       |   150540575                       |   585206037                      
system.ruby.network.packet_queueing_latency |   215793957                       |   180309388                       |    65799846                      
system.ruby.network.packets_injected     |    36607882     27.70%     27.70% |    30051555     22.74%     50.43% |    65519177     49.57%    100.00%
system.ruby.network.packets_injected::total    132178614                      
system.ruby.network.packets_received     |    36607882     27.70%     27.70% |    30051555     22.74%     50.43% |    65519177     49.57%    100.00%
system.ruby.network.packets_received::total    132178614                      
system.ruby.network.routers0.buffer_reads    158293146                      
system.ruby.network.routers0.buffer_writes    158293146                      
system.ruby.network.routers0.crossbar_activity    158293146                      
system.ruby.network.routers0.sw_input_arbiter_activity    158598728                      
system.ruby.network.routers0.sw_output_arbiter_activity    158293146                      
system.ruby.network.routers1.buffer_reads    179463757                      
system.ruby.network.routers1.buffer_writes    179463757                      
system.ruby.network.routers1.crossbar_activity    179463757                      
system.ruby.network.routers1.sw_input_arbiter_activity    179751094                      
system.ruby.network.routers1.sw_output_arbiter_activity    179463757                      
system.ruby.network.routers2.buffer_reads    155406954                      
system.ruby.network.routers2.buffer_writes    155406954                      
system.ruby.network.routers2.crossbar_activity    155406954                      
system.ruby.network.routers2.sw_input_arbiter_activity    155680527                      
system.ruby.network.routers2.sw_output_arbiter_activity    155406954                      
system.ruby.network.routers3.buffer_reads    163678753                      
system.ruby.network.routers3.buffer_writes    163678753                      
system.ruby.network.routers3.crossbar_activity    163678753                      
system.ruby.network.routers3.sw_input_arbiter_activity    163958248                      
system.ruby.network.routers3.sw_output_arbiter_activity    163678753                      
system.ruby.outstanding_req_hist_seqr::bucket_size            1                      
system.ruby.outstanding_req_hist_seqr::max_bucket            9                      
system.ruby.outstanding_req_hist_seqr::samples   3953867344                      
system.ruby.outstanding_req_hist_seqr::mean     1.000144                      
system.ruby.outstanding_req_hist_seqr::gmean     1.000100                      
system.ruby.outstanding_req_hist_seqr::stdev     0.012010                      
system.ruby.outstanding_req_hist_seqr    |           0      0.00%      0.00% |  3953296908     99.99%     99.99% |      570436      0.01%    100.00% |           0      0.00%    100.00% |           0      0.00%    100.00% |           0      0.00%    100.00% |           0      0.00%    100.00% |           0      0.00%    100.00% |           0      0.00%    100.00% |           0      0.00%    100.00%
system.ruby.outstanding_req_hist_seqr::total   3953867344                      
system.switch_cpus0.Branches                 68360193                       # Number of branches fetched
system.switch_cpus0.committedInsts          524753353                       # Number of instructions committed
system.switch_cpus0.committedOps            817912551                       # Number of ops (including micro ops) committed
system.switch_cpus0.dtb.rdAccesses          149442961                       # TLB accesses on read requests
system.switch_cpus0.dtb.rdMisses               526388                       # TLB misses on read requests
system.switch_cpus0.dtb.wrAccesses           83339231                       # TLB accesses on write requests
system.switch_cpus0.dtb.wrMisses               131450                       # TLB misses on write requests
system.switch_cpus0.idle_fraction            0.204733                       # Percentage of idle cycles
system.switch_cpus0.itb.rdAccesses                  0                       # TLB accesses on read requests
system.switch_cpus0.itb.rdMisses                    0                       # TLB misses on read requests
system.switch_cpus0.itb.wrAccesses          718442356                       # TLB accesses on write requests
system.switch_cpus0.itb.wrMisses                86947                       # TLB misses on write requests
system.switch_cpus0.kern.inst.arm                   0                       # number of arm instructions executed
system.switch_cpus0.kern.inst.quiesce               0                       # number of quiesce instructions executed
system.switch_cpus0.not_idle_fraction        0.795267                       # Percentage of non-idle cycles
system.switch_cpus0.numCycles              3470898875                       # number of cpu cycles simulated
system.switch_cpus0.numWorkItemsCompleted            0                       # number of work items this cpu completed
system.switch_cpus0.numWorkItemsStarted             0                       # number of work items this cpu started
system.switch_cpus0.num_busy_cycles      2760291495.750926                       # Number of busy cycles
system.switch_cpus0.num_cc_register_reads    392738921                       # number of times the CC registers were read
system.switch_cpus0.num_cc_register_writes    327911630                       # number of times the CC registers were written
system.switch_cpus0.num_conditional_control_insts     55337701                       # number of instructions that are conditional controls
system.switch_cpus0.num_fp_alu_accesses       8675566                       # Number of float alu accesses
system.switch_cpus0.num_fp_insts              8675566                       # number of float instructions
system.switch_cpus0.num_fp_register_reads      7864874                       # number of times the floating registers were read
system.switch_cpus0.num_fp_register_writes      1844937                       # number of times the floating registers were written
system.switch_cpus0.num_func_calls            7485577                       # number of times a function call or return occured
system.switch_cpus0.num_idle_cycles      710607379.249074                       # Number of idle cycles
system.switch_cpus0.num_int_alu_accesses    811649509                       # Number of integer alu accesses
system.switch_cpus0.num_int_insts           811649509                       # number of integer instructions
system.switch_cpus0.num_int_register_reads   1806713456                       # number of times the integer registers were read
system.switch_cpus0.num_int_register_writes    661857355                       # number of times the integer registers were written
system.switch_cpus0.num_load_insts          148797602                       # Number of load instructions
system.switch_cpus0.num_mem_refs            232019120                       # number of memory refs
system.switch_cpus0.num_store_insts          83221518                       # Number of store instructions
system.switch_cpus0.num_vec_alu_accesses            0                       # Number of vector alu accesses
system.switch_cpus0.num_vec_insts                   0                       # number of vector instructions
system.switch_cpus0.num_vec_register_reads            0                       # number of times the vector registers were read
system.switch_cpus0.num_vec_register_writes            0                       # number of times the vector registers were written
system.switch_cpus0.op_class::No_OpClass      3547114      0.43%      0.43% # Class of executed instruction
system.switch_cpus0.op_class::IntAlu        581336977     71.05%     71.48% # Class of executed instruction
system.switch_cpus0.op_class::IntMult          637119      0.08%     71.56% # Class of executed instruction
system.switch_cpus0.op_class::IntDiv           186302      0.02%     71.58% # Class of executed instruction
system.switch_cpus0.op_class::FloatAdd         168366      0.02%     71.60% # Class of executed instruction
system.switch_cpus0.op_class::FloatCmp              0      0.00%     71.60% # Class of executed instruction
system.switch_cpus0.op_class::FloatCvt           1616      0.00%     71.60% # Class of executed instruction
system.switch_cpus0.op_class::FloatMult             0      0.00%     71.60% # Class of executed instruction
system.switch_cpus0.op_class::FloatMultAcc            0      0.00%     71.60% # Class of executed instruction
system.switch_cpus0.op_class::FloatDiv              0      0.00%     71.60% # Class of executed instruction
system.switch_cpus0.op_class::FloatMisc             0      0.00%     71.60% # Class of executed instruction
system.switch_cpus0.op_class::FloatSqrt             0      0.00%     71.60% # Class of executed instruction
system.switch_cpus0.op_class::SimdAdd          334240      0.04%     71.64% # Class of executed instruction
system.switch_cpus0.op_class::SimdAddAcc            0      0.00%     71.64% # Class of executed instruction
system.switch_cpus0.op_class::SimdAlu            9544      0.00%     71.64% # Class of executed instruction
system.switch_cpus0.op_class::SimdCmp               0      0.00%     71.64% # Class of executed instruction
system.switch_cpus0.op_class::SimdCvt             388      0.00%     71.64% # Class of executed instruction
system.switch_cpus0.op_class::SimdMisc           5353      0.00%     71.64% # Class of executed instruction
system.switch_cpus0.op_class::SimdMult              0      0.00%     71.64% # Class of executed instruction
system.switch_cpus0.op_class::SimdMultAcc            0      0.00%     71.64% # Class of executed instruction
system.switch_cpus0.op_class::SimdShift            85      0.00%     71.64% # Class of executed instruction
system.switch_cpus0.op_class::SimdShiftAcc            0      0.00%     71.64% # Class of executed instruction
system.switch_cpus0.op_class::SimdDiv               0      0.00%     71.64% # Class of executed instruction
system.switch_cpus0.op_class::SimdSqrt              0      0.00%     71.64% # Class of executed instruction
system.switch_cpus0.op_class::SimdFloatAdd            0      0.00%     71.64% # Class of executed instruction
system.switch_cpus0.op_class::SimdFloatAlu            0      0.00%     71.64% # Class of executed instruction
system.switch_cpus0.op_class::SimdFloatCmp            0      0.00%     71.64% # Class of executed instruction
system.switch_cpus0.op_class::SimdFloatCvt            0      0.00%     71.64% # Class of executed instruction
system.switch_cpus0.op_class::SimdFloatDiv            0      0.00%     71.64% # Class of executed instruction
system.switch_cpus0.op_class::SimdFloatMisc            0      0.00%     71.64% # Class of executed instruction
system.switch_cpus0.op_class::SimdFloatMult            0      0.00%     71.64% # Class of executed instruction
system.switch_cpus0.op_class::SimdFloatMultAcc            0      0.00%     71.64% # Class of executed instruction
system.switch_cpus0.op_class::SimdFloatSqrt            0      0.00%     71.64% # Class of executed instruction
system.switch_cpus0.op_class::SimdReduceAdd            0      0.00%     71.64% # Class of executed instruction
system.switch_cpus0.op_class::SimdReduceAlu            0      0.00%     71.64% # Class of executed instruction
system.switch_cpus0.op_class::SimdReduceCmp            0      0.00%     71.64% # Class of executed instruction
system.switch_cpus0.op_class::SimdFloatReduceAdd            0      0.00%     71.64% # Class of executed instruction
system.switch_cpus0.op_class::SimdFloatReduceCmp            0      0.00%     71.64% # Class of executed instruction
system.switch_cpus0.op_class::SimdAes               0      0.00%     71.64% # Class of executed instruction
system.switch_cpus0.op_class::SimdAesMix            0      0.00%     71.64% # Class of executed instruction
system.switch_cpus0.op_class::SimdSha1Hash            0      0.00%     71.64% # Class of executed instruction
system.switch_cpus0.op_class::SimdSha1Hash2            0      0.00%     71.64% # Class of executed instruction
system.switch_cpus0.op_class::SimdSha256Hash            0      0.00%     71.64% # Class of executed instruction
system.switch_cpus0.op_class::SimdSha256Hash2            0      0.00%     71.64% # Class of executed instruction
system.switch_cpus0.op_class::SimdShaSigma2            0      0.00%     71.64% # Class of executed instruction
[...]
system.mem_ctrls1.llc.tags.warmup_cycle  101215298658500                       # Cycle when the warmup percentage was hit.
system.mem_ctrls1.llc.tags.occ_blocks::.ruby.dir_cntrl1 119036.424066                       # Average occupied blocks per requestor
system.mem_ctrls1.llc.tags.occ_percent::.ruby.dir_cntrl1     0.454088                       # Average percentage of cache occupancy
system.mem_ctrls1.llc.tags.occ_percent::total     0.454088                       # Average percentage of cache occupancy
system.mem_ctrls1.llc.tags.occ_task_id_blocks::1024       150784                       # Occupied blocks per task id
system.mem_ctrls1.llc.tags.age_task_id_blocks_1024::0            3                       # Occupied blocks per task id
system.mem_ctrls1.llc.tags.age_task_id_blocks_1024::1            1                       # Occupied blocks per task id
system.mem_ctrls1.llc.tags.age_task_id_blocks_1024::2            3                       # Occupied blocks per task id
system.mem_ctrls1.llc.tags.age_task_id_blocks_1024::3           16                       # Occupied blocks per task id
system.mem_ctrls1.llc.tags.age_task_id_blocks_1024::4       150761                       # Occupied blocks per task id
system.mem_ctrls1.llc.tags.occ_task_id_percent::1024     0.575195                       # Percentage of cache occupancy per task id
system.mem_ctrls1.llc.tags.tag_accesses     194772384                       # Number of tag accesses
system.mem_ctrls1.llc.tags.data_accesses     12163850                       # Number of data accesses
system.mem_ctrls1.llc.tags.power_state.pwrStateResidencyTicks::UNDEFINED 102950748045001                       # Cumulative time (in ticks) in various power states
system.mem_ctrls1.rank1.actEnergy            87393600                       # Energy for activate commands per rank (pJ)
system.mem_ctrls1.rank1.preEnergy            46450800                       # Energy for precharge commands per rank (pJ)
system.mem_ctrls1.rank1.readEnergy          536456760                       # Energy for read commands per rank (pJ)
system.mem_ctrls1.rank1.writeEnergy                 0                       # Energy for write commands per rank (pJ)
system.mem_ctrls1.rank1.refreshEnergy    136994651040.000015                       # Energy for refresh commands per rank (pJ)
system.mem_ctrls1.rank1.actBackEnergy     52722959970                       # Energy for active background per rank (pJ)
system.mem_ctrls1.rank1.preBackEnergy    622014222240                       # Energy for precharge background per rank (pJ)
system.mem_ctrls1.rank1.actPowerDownEnergy            0                       # Energy for active power-down per rank (pJ)
system.mem_ctrls1.rank1.prePowerDownEnergy            0                       # Energy for precharge power-down per rank (pJ)
system.mem_ctrls1.rank1.selfRefreshEnergy            0                       # Energy for self refresh per rank (pJ)
system.mem_ctrls1.rank1.totalEnergy      812402134410                       # Total energy per rank (pJ)
system.mem_ctrls1.rank1.averagePower       468.122009                       # Core power per rank (mW)
system.mem_ctrls1.rank1.totalIdleTime               0                       # Total Idle time Per DRAM Rank
system.mem_ctrls1.rank1.memoryStateTime::IDLE 1616611691003                       # Time in different power states
system.mem_ctrls1.rank1.memoryStateTime::REF  57950360000                       # Time in different power states
system.mem_ctrls1.rank1.memoryStateTime::SREF            0                       # Time in different power states
system.mem_ctrls1.rank1.memoryStateTime::PRE_PDN            0                       # Time in different power states
system.mem_ctrls1.rank1.memoryStateTime::ACT  60887507998                       # Time in different power states
system.mem_ctrls1.rank1.memoryStateTime::ACT_PDN            0                       # Time in different power states
system.mem_ctrls1.rank0.actEnergy            87229380                       # Energy for activate commands per rank (pJ)
system.mem_ctrls1.rank0.preEnergy            46363515                       # Energy for precharge commands per rank (pJ)
system.mem_ctrls1.rank0.readEnergy          540141000                       # Energy for read commands per rank (pJ)
system.mem_ctrls1.rank0.writeEnergy                 0                       # Energy for write commands per rank (pJ)
system.mem_ctrls1.rank0.refreshEnergy    136994651040.000015                       # Energy for refresh commands per rank (pJ)
system.mem_ctrls1.rank0.actBackEnergy     52749202770                       # Energy for active background per rank (pJ)
system.mem_ctrls1.rank0.preBackEnergy    621992203680                       # Energy for precharge background per rank (pJ)
system.mem_ctrls1.rank0.actPowerDownEnergy            0                       # Energy for active power-down per rank (pJ)
system.mem_ctrls1.rank0.prePowerDownEnergy            0                       # Energy for precharge power-down per rank (pJ)
system.mem_ctrls1.rank0.selfRefreshEnergy            0                       # Energy for self refresh per rank (pJ)
system.mem_ctrls1.rank0.totalEnergy      812409791385                       # Total energy per rank (pJ)
system.mem_ctrls1.rank0.averagePower       468.126421                       # Core power per rank (mW)
system.mem_ctrls1.rank0.totalIdleTime               0                       # Total Idle time Per DRAM Rank
system.mem_ctrls1.rank0.memoryStateTime::IDLE 1616554800751                       # Time in different power states
system.mem_ctrls1.rank0.memoryStateTime::REF  57950360000                       # Time in different power states
system.mem_ctrls1.rank0.memoryStateTime::SREF            0                       # Time in different power states
system.mem_ctrls1.rank0.memoryStateTime::PRE_PDN            0                       # Time in different power states
system.mem_ctrls1.rank0.memoryStateTime::ACT  60944398250                       # Time in different power states
system.mem_ctrls1.rank0.memoryStateTime::ACT_PDN            0                       # Time in different power states
system.mem_ctrls1.power_state.pwrStateResidencyTicks::UNDEFINED 102950748045001                       # Cumulative time (in ticks) in various power states
system.cpu_voltage_domain.voltage                   1                       # Voltage in Volts
system.iobus.trans_dist::ReadReq                 8211                       # Transaction distribution
system.iobus.trans_dist::ReadResp                8211                       # Transaction distribution
system.iobus.trans_dist::WriteReq               61924                       # Transaction distribution
system.iobus.trans_dist::WriteResp              61924                       # Transaction distribution
system.iobus.pkt_count_system.pc.south_bridge.io_apic.int_master::system.ruby.l1_cntrl1.sequencer.pio-slave-port           54                       # Packet count per connected master and slave (bytes)
system.iobus.pkt_count_system.pc.south_bridge.io_apic.int_master::total           54                       # Packet count per connected master and slave (bytes)
system.iobus.pkt_count_system.ruby.l1_cntrl0.sequencer.mem-master-port::system.ruby.l1_cntrl0.sequencer.pio-slave-port        23210                       # Packet count per connected master and slave (bytes)
system.iobus.pkt_count_system.ruby.l1_cntrl0.sequencer.mem-master-port::system.ruby.l1_cntrl1.sequencer.pio-slave-port         4208                       # Packet count per connected master and slave (bytes)
system.iobus.pkt_count_system.ruby.l1_cntrl0.sequencer.mem-master-port::system.ruby.l1_cntrl2.sequencer.pio-slave-port         4140                       # Packet count per connected master and slave (bytes)
system.iobus.pkt_count_system.ruby.l1_cntrl0.sequencer.mem-master-port::system.ruby.l1_cntrl3.sequencer.pio-slave-port         4094                       # Packet count per connected master and slave (bytes)
system.iobus.pkt_count_system.ruby.l1_cntrl0.sequencer.mem-master-port::total        35652                       # Packet count per connected master and slave (bytes)
system.iobus.pkt_count_system.ruby.l1_cntrl1.sequencer.mem-master-port::system.pc.south_bridge.ide.pio           82                       # Packet count per connected master and slave (bytes)
system.iobus.pkt_count_system.ruby.l1_cntrl1.sequencer.mem-master-port::system.pc.com_1.pio          174                       # Packet count per connected master and slave (bytes)
system.iobus.pkt_count_system.ruby.l1_cntrl1.sequencer.mem-master-port::system.ruby.l1_cntrl0.sequencer.pio-slave-port         3366                       # Packet count per connected master and slave (bytes)
system.iobus.pkt_count_system.ruby.l1_cntrl1.sequencer.mem-master-port::system.ruby.l1_cntrl1.sequencer.pio-slave-port        23614                       # Packet count per connected master and slave (bytes)
system.iobus.pkt_count_system.ruby.l1_cntrl1.sequencer.mem-master-port::system.ruby.l1_cntrl2.sequencer.pio-slave-port         3660                       # Packet count per connected master and slave (bytes)
system.iobus.pkt_count_system.ruby.l1_cntrl1.sequencer.mem-master-port::system.ruby.l1_cntrl3.sequencer.pio-slave-port         3654                       # Packet count per connected master and slave (bytes)
system.iobus.pkt_count_system.ruby.l1_cntrl1.sequencer.mem-master-port::total        34550                       # Packet count per connected master and slave (bytes)
system.iobus.pkt_count_system.ruby.l1_cntrl2.sequencer.mem-master-port::system.pc.com_1.pio            6                       # Packet count per connected master and slave (bytes)
system.iobus.pkt_count_system.ruby.l1_cntrl2.sequencer.mem-master-port::system.ruby.l1_cntrl0.sequencer.pio-slave-port         3600                       # Packet count per connected master and slave (bytes)
system.iobus.pkt_count_system.ruby.l1_cntrl2.sequencer.mem-master-port::system.ruby.l1_cntrl1.sequencer.pio-slave-port         3900                       # Packet count per connected master and slave (bytes)
system.iobus.pkt_count_system.ruby.l1_cntrl2.sequencer.mem-master-port::system.ruby.l1_cntrl2.sequencer.pio-slave-port        23620                       # Packet count per connected master and slave (bytes)
system.iobus.pkt_count_system.ruby.l1_cntrl2.sequencer.mem-master-port::system.ruby.l1_cntrl3.sequencer.pio-slave-port         3828                       # Packet count per connected master and slave (bytes)
system.iobus.pkt_count_system.ruby.l1_cntrl2.sequencer.mem-master-port::total        34954                       # Packet count per connected master and slave (bytes)
system.iobus.pkt_count_system.ruby.l1_cntrl3.sequencer.mem-master-port::system.pc.south_bridge.ide.pio          102                       # Packet count per connected master and slave (bytes)
system.iobus.pkt_count_system.ruby.l1_cntrl3.sequencer.mem-master-port::system.ruby.l1_cntrl0.sequencer.pio-slave-port         3734                       # Packet count per connected master and slave (bytes)
system.iobus.pkt_count_system.ruby.l1_cntrl3.sequencer.mem-master-port::system.ruby.l1_cntrl1.sequencer.pio-slave-port         3886                       # Packet count per connected master and slave (bytes)
system.iobus.pkt_count_system.ruby.l1_cntrl3.sequencer.mem-master-port::system.ruby.l1_cntrl2.sequencer.pio-slave-port         3792                       # Packet count per connected master and slave (bytes)
system.iobus.pkt_count_system.ruby.l1_cntrl3.sequencer.mem-master-port::system.ruby.l1_cntrl3.sequencer.pio-slave-port        23546                       # Packet count per connected master and slave (bytes)
system.iobus.pkt_count_system.ruby.l1_cntrl3.sequencer.mem-master-port::total        35060                       # Packet count per connected master and slave (bytes)
system.iobus.pkt_count::total                  140270                       # Packet count per connected master and slave (bytes)
system.iobus.pkt_size_system.pc.south_bridge.io_apic.int_master::system.ruby.l1_cntrl1.sequencer.pio-slave-port          108                       # Cumulative packet size per connected master and slave (bytes)
system.iobus.pkt_size_system.pc.south_bridge.io_apic.int_master::total          108                       # Cumulative packet size per connected master and slave (bytes)
system.iobus.pkt_size_system.ruby.l1_cntrl0.sequencer.mem-master-port::system.ruby.l1_cntrl0.sequencer.pio-slave-port        46420                       # Cumulative packet size per connected master and slave (bytes)
system.iobus.pkt_size_system.ruby.l1_cntrl0.sequencer.mem-master-port::system.ruby.l1_cntrl1.sequencer.pio-slave-port         8416                       # Cumulative packet size per connected master and slave (bytes)
system.iobus.pkt_size_system.ruby.l1_cntrl0.sequencer.mem-master-port::system.ruby.l1_cntrl2.sequencer.pio-slave-port         8280                       # Cumulative packet size per connected master and slave (bytes)
system.iobus.pkt_size_system.ruby.l1_cntrl0.sequencer.mem-master-port::system.ruby.l1_cntrl3.sequencer.pio-slave-port         8188                       # Cumulative packet size per connected master and slave (bytes)
system.iobus.pkt_size_system.ruby.l1_cntrl0.sequencer.mem-master-port::total        71304                       # Cumulative packet size per connected master and slave (bytes)
system.iobus.pkt_size_system.ruby.l1_cntrl1.sequencer.mem-master-port::system.pc.south_bridge.ide.pio           44                       # Cumulative packet size per connected master and slave (bytes)
system.iobus.pkt_size_system.ruby.l1_cntrl1.sequencer.mem-master-port::system.pc.com_1.pio           87                       # Cumulative packet size per connected master and slave (bytes)
system.iobus.pkt_size_system.ruby.l1_cntrl1.sequencer.mem-master-port::system.ruby.l1_cntrl0.sequencer.pio-slave-port         6732                       # Cumulative packet size per connected master and slave (bytes)
system.iobus.pkt_size_system.ruby.l1_cntrl1.sequencer.mem-master-port::system.ruby.l1_cntrl1.sequencer.pio-slave-port        47228                       # Cumulative packet size per connected master and slave (bytes)
system.iobus.pkt_size_system.ruby.l1_cntrl1.sequencer.mem-master-port::system.ruby.l1_cntrl2.sequencer.pio-slave-port         7320                       # Cumulative packet size per connected master and slave (bytes)
system.iobus.pkt_size_system.ruby.l1_cntrl1.sequencer.mem-master-port::system.ruby.l1_cntrl3.sequencer.pio-slave-port         7308                       # Cumulative packet size per connected master and slave (bytes)
system.iobus.pkt_size_system.ruby.l1_cntrl1.sequencer.mem-master-port::total        68719                       # Cumulative packet size per connected master and slave (bytes)
system.iobus.pkt_size_system.ruby.l1_cntrl2.sequencer.mem-master-port::system.pc.com_1.pio            3                       # Cumulative packet size per connected master and slave (bytes)
system.iobus.pkt_size_system.ruby.l1_cntrl2.sequencer.mem-master-port::system.ruby.l1_cntrl0.sequencer.pio-slave-port         7200                       # Cumulative packet size per connected master and slave (bytes)
system.iobus.pkt_size_system.ruby.l1_cntrl2.sequencer.mem-master-port::system.ruby.l1_cntrl1.sequencer.pio-slave-port         7800                       # Cumulative packet size per connected master and slave (bytes)
system.iobus.pkt_size_system.ruby.l1_cntrl2.sequencer.mem-master-port::system.ruby.l1_cntrl2.sequencer.pio-slave-port        47240                       # Cumulative packet size per connected master and slave (bytes)
system.iobus.pkt_size_system.ruby.l1_cntrl2.sequencer.mem-master-port::system.ruby.l1_cntrl3.sequencer.pio-slave-port         7656                       # Cumulative packet size per connected master and slave (bytes)
system.iobus.pkt_size_system.ruby.l1_cntrl2.sequencer.mem-master-port::total        69899                       # Cumulative packet size per connected master and slave (bytes)
system.iobus.pkt_size_system.ruby.l1_cntrl3.sequencer.mem-master-port::system.pc.south_bridge.ide.pio           60                       # Cumulative packet size per connected master and slave (bytes)
system.iobus.pkt_size_system.ruby.l1_cntrl3.sequencer.mem-master-port::system.ruby.l1_cntrl0.sequencer.pio-slave-port         7468                       # Cumulative packet size per connected master and slave (bytes)
system.iobus.pkt_size_system.ruby.l1_cntrl3.sequencer.mem-master-port::system.ruby.l1_cntrl1.sequencer.pio-slave-port         7772                       # Cumulative packet size per connected master and slave (bytes)
system.iobus.pkt_size_system.ruby.l1_cntrl3.sequencer.mem-master-port::system.ruby.l1_cntrl2.sequencer.pio-slave-port         7584                       # Cumulative packet size per connected master and slave (bytes)
system.iobus.pkt_size_system.ruby.l1_cntrl3.sequencer.mem-master-port::system.ruby.l1_cntrl3.sequencer.pio-slave-port        47092                       # Cumulative packet size per connected master and slave (bytes)
system.iobus.pkt_size_system.ruby.l1_cntrl3.sequencer.mem-master-port::total        69976                       # Cumulative packet size per connected master and slave (bytes)
system.iobus.pkt_size::total                   280006                       # Cumulative packet size per connected master and slave (bytes)
system.iobus.reqLayer2.occupancy               153000                       # Layer occupancy (ticks)
system.iobus.reqLayer2.utilization                0.0                       # Layer utilization (%)
system.iobus.power_state.pwrStateResidencyTicks::UNDEFINED 102950748045001                       # Cumulative time (in ticks) in various power states
system.iobus.reqLayer19.occupancy            40742438                       # Layer occupancy (ticks)
system.iobus.reqLayer19.utilization               0.0                       # Layer utilization (%)
system.iobus.reqLayer17.occupancy            38774028                       # Layer occupancy (ticks)
system.iobus.reqLayer17.utilization               0.0                       # Layer utilization (%)
system.iobus.reqLayer12.occupancy              114500                       # Layer occupancy (ticks)
system.iobus.reqLayer12.utilization               0.0                       # Layer utilization (%)
system.iobus.reqLayer18.occupancy            41411374                       # Layer occupancy (ticks)
system.iobus.reqLayer18.utilization               0.0                       # Layer utilization (%)
system.iobus.respLayer9.occupancy            24557999                       # Layer occupancy (ticks)
system.iobus.respLayer9.utilization               0.0                       # Layer utilization (%)
system.iobus.respLayer5.occupancy            24372000                       # Layer occupancy (ticks)
system.iobus.respLayer5.utilization               0.0                       # Layer utilization (%)
system.iobus.respLayer7.occupancy            24539000                       # Layer occupancy (ticks)
system.iobus.respLayer7.utilization               0.0                       # Layer utilization (%)
system.iobus.respLayer0.occupancy               41496                       # Layer occupancy (ticks)
system.iobus.respLayer0.utilization               0.0                       # Layer utilization (%)
system.iobus.respLayer3.occupancy            24829999                       # Layer occupancy (ticks)
system.iobus.respLayer3.utilization               0.0                       # Layer utilization (%)
system.iobus.reqLayer20.occupancy            40669024                       # Layer occupancy (ticks)
system.iobus.reqLayer20.utilization               0.0                       # Layer utilization (%)

---------- End Simulation Statistics   ----------
