
---------- Begin Simulation Statistics ----------
final_tick                               102742796095001                       # Number of ticks from beginning of simulation (restored from checkpoints and never reset)
host_inst_rate                                 779341                       # Simulator instruction rate (inst/s)
host_mem_usage                                1631092                       # Number of bytes of host memory used
host_op_rate                                   975029                       # Simulator op (including micro ops) rate (op/s)
host_seconds                                  8829.76                       # Real time elapsed on the host
host_tick_rate                              190447441                       # Simulator tick rate (ticks/s)
sim_freq                                 1000000000000                       # Frequency of simulated ticks
sim_insts                                  6881394476                       # Number of instructions simulated
sim_ops                                    8609274908                       # Number of ops (including micro ops) simulated
sim_seconds                                  1.681606                       # Number of seconds simulated
sim_ticks                                1681605859001                       # Number of ticks simulated
system.cpu0.committedInsts                          0                       # Number of instructions committed
system.cpu0.dtb.rdAccesses                          0                       # TLB accesses on read requests
system.cpu0.dtb.rdMisses                            0                       # TLB misses on read requests
system.cpu0.dtb.wrAccesses                          0                       # TLB accesses on write requests
system.cpu0.dtb.wrMisses                            0                       # TLB misses on write requests
system.cpu0.itb.rdAccesses                          0                       # TLB accesses on read requests
system.cpu0.itb.rdMisses                            0                       # TLB misses on read requests
system.cpu0.itb.wrAccesses                          0                       # TLB accesses on write requests
system.cpu0.itb.wrMisses                            0                       # TLB misses on write requests
system.cpu0.kern.inst.arm                           0                       # number of arm instructions executed
system.cpu0.kern.inst.quiesce                       0                       # number of quiesce instructions executed
system.cpu0.numCoalescedMMIO                        0                       # number of coalesced memory mapped IO requests
system.cpu0.numCycles                               0                       # number of cpu cycles simulated
system.cpu0.numExitSignal                           0                       # exits due to signal delivery
system.cpu0.numHalt                                 0                       # number of VM exits due to wait for interrupt instructions
system.cpu0.numHypercalls                           0                       # number of hypercalls
system.cpu0.numIO                                   0                       # number of VM exits due to legacy IO
system.cpu0.numInterrupts                           0                       # number of interrupts delivered
system.cpu0.numMMIO                                 0                       # number of VM exits due to memory mapped IO
system.cpu0.numVMExits                              0                       # total number of KVM exits
system.cpu0.numVMHalfEntries                        0                       # number of KVM entries to finalize pending operations
system.cpu0.numWorkItemsCompleted                   0                       # number of work items this cpu completed
system.cpu0.numWorkItemsStarted                     0                       # number of work items this cpu started
system.cpu1.committedInsts                          0                       # Number of instructions committed
system.cpu1.dtb.rdAccesses                          0                       # TLB accesses on read requests
system.cpu1.dtb.rdMisses                            0                       # TLB misses on read requests
system.cpu1.dtb.wrAccesses                          0                       # TLB accesses on write requests
system.cpu1.dtb.wrMisses                            0                       # TLB misses on write requests
system.cpu1.itb.rdAccesses                          0                       # TLB accesses on read requests
system.cpu1.itb.rdMisses                            0                       # TLB misses on read requests
system.cpu1.itb.wrAccesses                          0                       # TLB accesses on write requests
system.cpu1.itb.wrMisses                            0                       # TLB misses on write requests
system.cpu1.kern.inst.arm                           0                       # number of arm instructions executed
system.cpu1.kern.inst.quiesce                       0                       # number of quiesce instructions executed
system.cpu1.numCoalescedMMIO                        0                       # number of coalesced memory mapped IO requests
system.cpu1.numCycles                               0                       # number of cpu cycles simulated
system.cpu1.numExitSignal                           0                       # exits due to signal delivery
system.cpu1.numHalt                                 0                       # number of VM exits due to wait for interrupt instructions
system.cpu1.numHypercalls                           0                       # number of hypercalls
system.cpu1.numIO                                   0                       # number of VM exits due to legacy IO
system.cpu1.numInterrupts                           0                       # number of interrupts delivered
system.cpu1.numMMIO                                 0                       # number of VM exits due to memory mapped IO
system.cpu1.numVMExits                              0                       # total number of KVM exits
system.cpu1.numVMHalfEntries                        0                       # number of KVM entries to finalize pending operations
system.cpu1.numWorkItemsCompleted                   0                       # number of work items this cpu completed
system.cpu1.numWorkItemsStarted                     0                       # number of work items this cpu started
system.cpu2.committedInsts                          0                       # Number of instructions committed
system.cpu2.dtb.rdAccesses                          0                       # TLB accesses on read requests
system.cpu2.dtb.rdMisses                            0                       # TLB misses on read requests
system.cpu2.dtb.wrAccesses                          0                       # TLB accesses on write requests
system.cpu2.dtb.wrMisses                            0                       # TLB misses on write requests
system.cpu2.itb.rdAccesses                          0                       # TLB accesses on read requests
system.cpu2.itb.rdMisses                            0                       # TLB misses on read requests
system.cpu2.itb.wrAccesses                          0                       # TLB accesses on write requests
system.cpu2.itb.wrMisses                            0                       # TLB misses on write requests
system.cpu2.kern.inst.arm                           0                       # number of arm instructions executed
system.cpu2.kern.inst.quiesce                       0                       # number of quiesce instructions executed
system.cpu2.numCoalescedMMIO                        0                       # number of coalesced memory mapped IO requests
system.cpu2.numCycles                               0                       # number of cpu cycles simulated
system.cpu2.numExitSignal                           0                       # exits due to signal delivery
system.cpu2.numHalt                                 0                       # number of VM exits due to wait for interrupt instructions
system.cpu2.numHypercalls                           0                       # number of hypercalls
system.cpu2.numIO                                   0                       # number of VM exits due to legacy IO
system.cpu2.numInterrupts                           0                       # number of interrupts delivered
system.cpu2.numMMIO                                 0                       # number of VM exits due to memory mapped IO
system.cpu2.numVMExits                              0                       # total number of KVM exits
system.cpu2.numVMHalfEntries                        0                       # number of KVM entries to finalize pending operations
system.cpu2.numWorkItemsCompleted                   0                       # number of work items this cpu completed
system.cpu2.numWorkItemsStarted                     0                       # number of work items this cpu started
system.cpu3.committedInsts                          0                       # Number of instructions committed
system.cpu3.dtb.rdAccesses                          0                       # TLB accesses on read requests
system.cpu3.dtb.rdMisses                            0                       # TLB misses on read requests
system.cpu3.dtb.wrAccesses                          0                       # TLB accesses on write requests
system.cpu3.dtb.wrMisses                            0                       # TLB misses on write requests
system.cpu3.itb.rdAccesses                          0                       # TLB accesses on read requests
system.cpu3.itb.rdMisses                            0                       # TLB misses on read requests
system.cpu3.itb.wrAccesses                          0                       # TLB accesses on write requests
system.cpu3.itb.wrMisses                            0                       # TLB misses on write requests
system.cpu3.kern.inst.arm                           0                       # number of arm instructions executed
system.cpu3.kern.inst.quiesce                       0                       # number of quiesce instructions executed
system.cpu3.numCoalescedMMIO                        0                       # number of coalesced memory mapped IO requests
system.cpu3.numCycles                               0                       # number of cpu cycles simulated
system.cpu3.numExitSignal                           0                       # exits due to signal delivery
system.cpu3.numHalt                                 0                       # number of VM exits due to wait for interrupt instructions
system.cpu3.numHypercalls                           0                       # number of hypercalls
system.cpu3.numIO                                   0                       # number of VM exits due to legacy IO
system.cpu3.numInterrupts                           0                       # number of interrupts delivered
system.cpu3.numMMIO                                 0                       # number of VM exits due to memory mapped IO
system.cpu3.numVMExits                              0                       # total number of KVM exits
system.cpu3.numVMHalfEntries                        0                       # number of KVM entries to finalize pending operations
system.cpu3.numWorkItemsCompleted                   0                       # number of work items this cpu completed
system.cpu3.numWorkItemsStarted                     0                       # number of work items this cpu started
system.pc.south_bridge.ide.disks.dma_read_bytes       258048                       # Number of bytes transfered via DMA reads (not PRD).
system.pc.south_bridge.ide.disks.dma_read_full_pages           63                       # Number of full page size DMA reads (not PRD).
system.pc.south_bridge.ide.disks.dma_read_txs           63                       # Number of DMA read transactions (not PRD).
system.pc.south_bridge.ide.disks.dma_write_bytes       126976                       # Number of bytes transfered via DMA writes.
system.pc.south_bridge.ide.disks.dma_write_full_pages           31                       # Number of full page size DMA writes.
system.pc.south_bridge.ide.disks.dma_write_txs           31                       # Number of DMA write transactions.
system.ruby.DMA_Controller.I.allocI_load |        4043    100.00%    100.00% |           0      0.00%    100.00%
system.ruby.DMA_Controller.I.allocI_load::total         4043                      
system.ruby.DMA_Controller.I.allocI_store |        1984    100.00%    100.00% |           0      0.00%    100.00%
system.ruby.DMA_Controller.I.allocI_store::total         1984                      
system.ruby.DMA_Controller.I.deallocfwdfrom_in |        5003    100.00%    100.00% |           0      0.00%    100.00%
system.ruby.DMA_Controller.I.deallocfwdfrom_in::total         5003                      
system.ruby.DMA_Controller.M.allocTBE    |        1984    100.00%    100.00% |           0      0.00%    100.00%
system.ruby.DMA_Controller.M.allocTBE::total         1984                      
system.ruby.DMA_Controller.M.externalstoreMrespfrom_in |        1984    100.00%    100.00% |           0      0.00%    100.00%
system.ruby.DMA_Controller.M.externalstoreMrespfrom_in::total         1984                      
system.ruby.DMA_Controller.M_evict.Stallmandatory_in |      105207    100.00%    100.00% |           0      0.00%    100.00%
system.ruby.DMA_Controller.M_evict.Stallmandatory_in::total       105207                      
system.ruby.DMA_Controller.S.SloadSEvent |          53    100.00%    100.00% |           0      0.00%    100.00%
system.ruby.DMA_Controller.S.SloadSEvent::total           53                      
system.ruby.DMA_Controller.S.allocTBE    |        3016    100.00%    100.00% |           0      0.00%    100.00%
system.ruby.DMA_Controller.S.allocTBE::total         3016                      
system.ruby.DMA_Controller.S.externalloadSrespfrom_in |        4043    100.00%    100.00% |           0      0.00%    100.00%
system.ruby.DMA_Controller.S.externalloadSrespfrom_in::total         4043                      
system.ruby.DMA_Controller.S_evict.Stallmandatory_in |      128681    100.00%    100.00% |           0      0.00%    100.00%
system.ruby.DMA_Controller.S_evict.Stallmandatory_in::total       128681                      
system.ruby.DMA_Controller.SloadSEvent   |          53    100.00%    100.00% |           0      0.00%    100.00%
system.ruby.DMA_Controller.SloadSEvent::total           53                      
system.ruby.DMA_Controller.Stallmandatory_in |      233888    100.00%    100.00% |           0      0.00%    100.00%
system.ruby.DMA_Controller.Stallmandatory_in::total       233888                      
system.ruby.DMA_Controller.allocI_load   |        4043    100.00%    100.00% |           0      0.00%    100.00%
system.ruby.DMA_Controller.allocI_load::total         4043                      
system.ruby.DMA_Controller.allocI_store  |        1984    100.00%    100.00% |           0      0.00%    100.00%
system.ruby.DMA_Controller.allocI_store::total         1984                      
system.ruby.DMA_Controller.allocTBE      |        5000    100.00%    100.00% |           0      0.00%    100.00%
system.ruby.DMA_Controller.allocTBE::total         5000                      
system.ruby.DMA_Controller.deallocfwdfrom_in |        5003    100.00%    100.00% |           0      0.00%    100.00%
system.ruby.DMA_Controller.deallocfwdfrom_in::total         5003                      
system.ruby.DMA_Controller.externalloadSrespfrom_in |        4043    100.00%    100.00% |           0      0.00%    100.00%
system.ruby.DMA_Controller.externalloadSrespfrom_in::total         4043                      
system.ruby.DMA_Controller.externalstoreMrespfrom_in |        1984    100.00%    100.00% |           0      0.00%    100.00%
system.ruby.DMA_Controller.externalstoreMrespfrom_in::total         1984                      
system.ruby.Directory_Controller.I.deallocTBE |     2942548     26.27%     26.27% |     2751630     24.57%     50.84% |     2785783     24.87%     75.71% |     2720779     24.29%    100.00%
system.ruby.Directory_Controller.I.deallocTBE::total     11200740                      
system.ruby.Directory_Controller.I_GetML1C1_0.Progress |      934982     26.54%     26.54% |      858722     24.37%     50.91% |      859700     24.40%     75.31% |      869736     24.69%    100.00%
system.ruby.Directory_Controller.I_GetML1C1_0.Progress::total      3523140                      
system.ruby.Directory_Controller.I_GetML1C1_0.Stallreqto_in |           0      0.00%      0.00% |        2240     31.25%     31.25% |         928     12.95%     44.20% |        4000     55.80%    100.00%
system.ruby.Directory_Controller.I_GetML1C1_0.Stallreqto_in::total         7168                      
system.ruby.Directory_Controller.I_GetSL1C1_0.Progress |     2008562     26.15%     26.15% |     1893875     24.65%     50.80% |     1927129     25.09%     75.89% |     1852047     24.11%    100.00%
system.ruby.Directory_Controller.I_GetSL1C1_0.Progress::total      7681613                      
system.ruby.Directory_Controller.I_GetSL1C1_0.Stallreqto_in |      575853     11.65%     11.65% |      436207      8.83%     20.48% |     3606671     72.98%     93.46% |      323086      6.54%    100.00%
system.ruby.Directory_Controller.I_GetSL1C1_0.Stallreqto_in::total      4941817                      
system.ruby.Directory_Controller.M.allocTBE |        6359     13.38%     13.38% |       20947     44.08%     57.46% |       13537     28.49%     85.95% |        6678     14.05%    100.00%
system.ruby.Directory_Controller.M.allocTBE::total        47521                      
system.ruby.Directory_Controller.M.deallocTBE |     1171871     26.41%     26.41% |     1091923     24.60%     51.01% |     1083138     24.41%     75.41% |     1091091     24.59%    100.00%
system.ruby.Directory_Controller.M.deallocTBE::total      4438023                      
system.ruby.Directory_Controller.M_GetM.Progress |        1524      9.71%      9.71% |        8972     57.15%     66.86% |        1716     10.93%     77.79% |        3487     22.21%    100.00%
system.ruby.Directory_Controller.M_GetM.Progress::total        15699                      
system.ruby.Directory_Controller.M_GetM.Stallreqto_in |         128      1.93%      1.93% |        5726     86.47%     88.40% |          32      0.48%     88.89% |         736     11.11%    100.00%
system.ruby.Directory_Controller.M_GetM.Stallreqto_in::total         6622                      
system.ruby.Directory_Controller.M_GetS.Progress |        4835     15.19%     15.19% |       11975     37.63%     52.83% |       11821     37.15%     89.97% |        3191     10.03%    100.00%
system.ruby.Directory_Controller.M_GetS.Progress::total        31822                      
system.ruby.Directory_Controller.M_GetS.Stallreqto_in |       31745     26.20%     26.20% |       31026     25.61%     51.80% |       11135      9.19%     60.99% |       47265     39.01%    100.00%
system.ruby.Directory_Controller.M_GetS.Stallreqto_in::total       121171                      
system.ruby.Directory_Controller.M_GetS_WBL1C1_0.Progress |        4835     15.19%     15.19% |       11975     37.63%     52.83% |       11821     37.15%     89.97% |        3191     10.03%    100.00%
system.ruby.Directory_Controller.M_GetS_WBL1C1_0.Progress::total        31822                      
system.ruby.Directory_Controller.M_GetS_WBL1C1_0.Stallreqto_in |       33863     16.87%     16.87% |       68715     34.24%     51.11% |       32911     16.40%     67.51% |       65204     32.49%    100.00%
system.ruby.Directory_Controller.M_GetS_WBL1C1_0.Stallreqto_in::total       200693                      
system.ruby.Directory_Controller.M_PutML1C1_0.Progress |     1165200     26.55%     26.55% |     1070668     24.39%     50.94% |     1069281     24.36%     75.30% |     1084103     24.70%    100.00%
system.ruby.Directory_Controller.M_PutML1C1_0.Progress::total      4389252                      
system.ruby.Directory_Controller.M_PutML1C1_0.Stallreqto_in |         256     30.77%     30.77% |           0      0.00%     30.77% |         576     69.23%    100.00% |           0      0.00%    100.00%
system.ruby.Directory_Controller.M_PutML1C1_0.Stallreqto_in::total          832                      
system.ruby.Directory_Controller.Progress |     5145021     26.02%     26.02% |     4841276     24.49%     50.51% |     5015196     25.37%     75.88% |     4769091     24.12%    100.00%
system.ruby.Directory_Controller.Progress::total     19770584                      
system.ruby.Directory_Controller.S.allocTBE |      235365     26.18%     26.18% |      224228     24.94%     51.11% |      221721     24.66%     75.77% |      217868     24.23%    100.00%
system.ruby.Directory_Controller.S.allocTBE::total       899182                      
system.ruby.Directory_Controller.S.deallocTBE |     3590872     25.47%     25.47% |     3425381     24.29%     49.76% |     3760788     26.67%     76.43% |     3324105     23.57%    100.00%
system.ruby.Directory_Controller.S.deallocTBE::total     14101146                      
system.ruby.Directory_Controller.S_GetM.Stallreqto_in |       30686      7.46%      7.46% |      116013     28.21%     35.67% |      197668     48.07%     83.74% |       66877     16.26%    100.00%
system.ruby.Directory_Controller.S_GetM.Stallreqto_in::total       411244                      
system.ruby.Directory_Controller.S_GetM.deallocTBE |        4392     14.13%     14.13% |       11968     38.51%     52.64% |       11548     37.16%     89.80% |        3169     10.20%    100.00%
system.ruby.Directory_Controller.S_GetM.deallocTBE::total        31077                      
system.ruby.Directory_Controller.S_GetML1C1_0.Progress |        3561     12.94%     12.94% |       10190     37.04%     49.98% |       11308     41.10%     91.09% |        2452      8.91%    100.00%
system.ruby.Directory_Controller.S_GetML1C1_0.Progress::total        27511                      
system.ruby.Directory_Controller.S_GetML1C1_0.Stallreqto_in |        2080      3.49%      3.49% |       31646     53.14%     56.63% |       25824     43.37%    100.00% |           0      0.00%    100.00%
system.ruby.Directory_Controller.S_GetML1C1_0.Stallreqto_in::total        59550                      
system.ruby.Directory_Controller.S_GetML1C1_1.Progress |         831     23.30%     23.30% |        1778     49.86%     73.16% |         240      6.73%     79.89% |         717     20.11%    100.00%
system.ruby.Directory_Controller.S_GetML1C1_1.Progress::total         3566                      
system.ruby.Directory_Controller.S_GetML1C1_1.Stallreqto_in |           0      0.00%      0.00% |        4861    100.00%    100.00% |           0      0.00%    100.00% |           0      0.00%    100.00%
system.ruby.Directory_Controller.S_GetML1C1_1.Stallreqto_in::total         4861                      
system.ruby.Directory_Controller.S_GetML1C1_3.Progress |      230973     26.61%     26.61% |      212260     24.45%     51.06% |      210173     24.21%     75.27% |      214699     24.73%    100.00%
system.ruby.Directory_Controller.S_GetML1C1_3.Progress::total       868105                      
system.ruby.Directory_Controller.S_GetSL1C1_0.Progress |      789718     24.69%     24.69% |      760861     23.79%     48.49% |      912007     28.52%     77.00% |      735468     23.00%    100.00%
system.ruby.Directory_Controller.S_GetSL1C1_0.Progress::total      3198054                      
system.ruby.Directory_Controller.S_GetSL1C1_0.Stallreqto_in |     3054241     15.65%     15.65% |     2223845     11.39%     27.04% |    12552408     64.31%     91.36% |     1686759      8.64%    100.00%
system.ruby.Directory_Controller.S_GetSL1C1_0.Stallreqto_in::total     19517253                      
system.ruby.Directory_Controller.Stallreqto_in |     3728852     14.76%     14.76% |     2920279     11.56%     26.31% |    16428153     65.01%     91.32% |     2193927      8.68%    100.00%
system.ruby.Directory_Controller.Stallreqto_in::total     25271211                      
system.ruby.Directory_Controller.allocTBE |      241724     25.53%     25.53% |      245175     25.90%     51.43% |      235258     24.85%     76.28% |      224546     23.72%    100.00%
system.ruby.Directory_Controller.allocTBE::total       946703                      
system.ruby.Directory_Controller.deallocTBE |     7709683     25.90%     25.90% |     7280902     24.46%     50.35% |     7641257     25.67%     76.02% |     7139144     23.98%    100.00%
system.ruby.Directory_Controller.deallocTBE::total     29770986                      
system.ruby.IFETCH.hit_latency_hist_seqr::bucket_size            1                      
system.ruby.IFETCH.hit_latency_hist_seqr::max_bucket            9                      
system.ruby.IFETCH.hit_latency_hist_seqr::samples   2543147115                      
system.ruby.IFETCH.hit_latency_hist_seqr |  2543147115    100.00%    100.00% |           0      0.00%    100.00% |           0      0.00%    100.00% |           0      0.00%    100.00% |           0      0.00%    100.00% |           0      0.00%    100.00% |           0      0.00%    100.00% |           0      0.00%    100.00% |           0      0.00%    100.00% |           0      0.00%    100.00%
system.ruby.IFETCH.hit_latency_hist_seqr::total   2543147115                      
system.ruby.IFETCH.latency_hist_seqr::bucket_size            1                      
system.ruby.IFETCH.latency_hist_seqr::max_bucket            9                      
system.ruby.IFETCH.latency_hist_seqr::samples   2546087456                      
system.ruby.IFETCH.latency_hist_seqr     |  2546087456    100.00%    100.00% |           0      0.00%    100.00% |           0      0.00%    100.00% |           0      0.00%    100.00% |           0      0.00%    100.00% |           0      0.00%    100.00% |           0      0.00%    100.00% |           0      0.00%    100.00% |           0      0.00%    100.00% |           0      0.00%    100.00%
system.ruby.IFETCH.latency_hist_seqr::total   2546087456                      
system.ruby.IFETCH.miss_latency_hist_seqr::bucket_size            1                      
system.ruby.IFETCH.miss_latency_hist_seqr::max_bucket            9                      
system.ruby.IFETCH.miss_latency_hist_seqr::samples      2940341                      
system.ruby.IFETCH.miss_latency_hist_seqr |     2940341    100.00%    100.00% |           0      0.00%    100.00% |           0      0.00%    100.00% |           0      0.00%    100.00% |           0      0.00%    100.00% |           0      0.00%    100.00% |           0      0.00%    100.00% |           0      0.00%    100.00% |           0      0.00%    100.00% |           0      0.00%    100.00%
system.ruby.IFETCH.miss_latency_hist_seqr::total      2940341                      
system.ruby.L1Cache_Controller.I.allocI_load |     2691688     24.68%     24.68% |     2492164     22.85%     47.53% |     2337044     21.43%     68.95% |     3386550     31.05%    100.00%
system.ruby.L1Cache_Controller.I.allocI_load::total     10907446                      
system.ruby.L1Cache_Controller.I.allocI_store |      831159     23.48%     23.48% |      678701     19.17%     42.65% |      661971     18.70%     61.34% |     1368538     38.66%    100.00%
system.ruby.L1Cache_Controller.I.allocI_store::total      3540369                      
system.ruby.L1Cache_Controller.I.deallocfwdfrom_in |     3521825     24.38%     24.38% |     3169854     21.95%     46.33% |     2997991     20.76%     67.09% |     4754078     32.91%    100.00%
system.ruby.L1Cache_Controller.I.deallocfwdfrom_in::total     14443748                      
system.ruby.L1Cache_Controller.I_store.Progress |        3927     63.46%     63.46% |         742     11.99%     75.45% |         726     11.73%     87.18% |         793     12.82%    100.00%
system.ruby.L1Cache_Controller.I_store.Progress::total         6188                      
system.ruby.L1Cache_Controller.I_store.Stallfwdfrom_in |         476     17.02%     17.02% |         848     30.33%     47.35% |         584     20.89%     68.24% |         888     31.76%    100.00%
system.ruby.L1Cache_Controller.I_store.Stallfwdfrom_in::total         2796                      
system.ruby.L1Cache_Controller.M.MloadMEvent |    68105600     22.07%     22.07% |    62263122     20.17%     42.24% |    65015607     21.07%     63.31% |   113242784     36.69%    100.00%
system.ruby.L1Cache_Controller.M.MloadMEvent::total    308627113                      
system.ruby.L1Cache_Controller.M.MstoreMEvent |    62937881     23.12%     23.12% |    54631104     20.07%     43.18% |    58504788     21.49%     64.67% |    96177606     35.33%    100.00%
system.ruby.L1Cache_Controller.M.MstoreMEvent::total    272251379                      
system.ruby.L1Cache_Controller.M.allocTBE |     1098791     25.04%     25.04% |      845195     19.26%     44.31% |      836117     19.06%     63.37% |     1607165     36.63%    100.00%
system.ruby.L1Cache_Controller.M.allocTBE::total      4387268                      
system.ruby.L1Cache_Controller.M.externalstoreMrespfrom_in |     1117039     25.18%     25.18% |      855373     19.28%     44.46% |      846572     19.08%     63.55% |     1617053     36.45%    100.00%
system.ruby.L1Cache_Controller.M.externalstoreMrespfrom_in::total      4436037                      
system.ruby.L1Cache_Controller.M_evict.Progress |     1098791     25.04%     25.04% |      845195     19.26%     44.31% |      836117     19.06%     63.37% |     1607165     36.63%    100.00%
system.ruby.L1Cache_Controller.M_evict.Progress::total      4387268                      
system.ruby.L1Cache_Controller.M_evict.Stallmandatory_in |   177490221     24.97%     24.97% |   137095182     19.29%     44.26% |   135634142     19.08%     63.35% |   260494494     36.65%    100.00%
system.ruby.L1Cache_Controller.M_evict.Stallmandatory_in::total    710714039                      
system.ruby.L1Cache_Controller.MloadMEvent |    68105600     22.07%     22.07% |    62263122     20.17%     42.24% |    65015607     21.07%     63.31% |   113242784     36.69%    100.00%
system.ruby.L1Cache_Controller.MloadMEvent::total    308627113                      
system.ruby.L1Cache_Controller.MstoreMEvent |    62937881     23.12%     23.12% |    54631104     20.07%     43.18% |    58504788     21.49%     64.67% |    96177606     35.33%    100.00%
system.ruby.L1Cache_Controller.MstoreMEvent::total    272251379                      
system.ruby.L1Cache_Controller.Progress  |     3817805     24.91%     24.91% |     3337105     21.78%     46.69% |     3173311     20.71%     67.40% |     4995607     32.60%    100.00%
system.ruby.L1Cache_Controller.Progress::total     15323828                      
system.ruby.L1Cache_Controller.S.SloadSEvent |   622982078     22.71%     22.71% |   588983025     21.47%     44.17% |   593788099     21.64%     65.81% |   937944515     34.19%    100.00%
system.ruby.L1Cache_Controller.S.SloadSEvent::total   2743697717                      
system.ruby.L1Cache_Controller.S.allocTBE |     2697368     24.76%     24.76% |     2485015     22.81%     47.57% |     2330121     21.39%     68.96% |     3381295     31.04%    100.00%
system.ruby.L1Cache_Controller.S.allocTBE::total     10893799                      
system.ruby.L1Cache_Controller.S.deallocTBE |       13900     43.68%     43.68% |        6001     18.86%     62.54% |        6153     19.34%     81.87% |        5768     18.13%    100.00%
system.ruby.L1Cache_Controller.S.deallocTBE::total        31822                      
system.ruby.L1Cache_Controller.S.externalloadSrespfrom_in |     2691688     24.68%     24.68% |     2492164     22.85%     47.53% |     2337044     21.43%     68.95% |     3386550     31.05%    100.00%
system.ruby.L1Cache_Controller.S.externalloadSrespfrom_in::total     10907446                      
system.ruby.L1Cache_Controller.S_evict.Progress |     2411488     24.12%     24.12% |     2308343     23.09%     47.21% |     2145520     21.46%     68.67% |     3132780     31.33%    100.00%
system.ruby.L1Cache_Controller.S_evict.Progress::total      9998131                      
system.ruby.L1Cache_Controller.S_evict.Stallmandatory_in |   197796837     24.07%     24.07% |   190315153     23.16%     47.22% |   175609527     21.37%     68.59% |   258195862     31.41%    100.00%
system.ruby.L1Cache_Controller.S_evict.Stallmandatory_in::total    821917379                      
system.ruby.L1Cache_Controller.S_evict_x_I.Progress |           1     50.00%     50.00% |           0      0.00%     50.00% |           0      0.00%     50.00% |           1     50.00%    100.00%
system.ruby.L1Cache_Controller.S_evict_x_I.Progress::total            2                      
system.ruby.L1Cache_Controller.S_evict_x_I.Stallmandatory_in |         159     50.00%     50.00% |           0      0.00%     50.00% |           0      0.00%     50.00% |         159     50.00%    100.00%
system.ruby.L1Cache_Controller.S_evict_x_I.Stallmandatory_in::total          318                      
system.ruby.L1Cache_Controller.S_store.Progress |      303598     32.57%     32.57% |      182825     19.61%     52.18% |      190948     20.48%     72.66% |      254868     27.34%    100.00%
system.ruby.L1Cache_Controller.S_store.Progress::total       932239                      
system.ruby.L1Cache_Controller.SloadSEvent |   622982078     22.71%     22.71% |   588983025     21.47%     44.17% |   593788099     21.64%     65.81% |   937944515     34.19%    100.00%
system.ruby.L1Cache_Controller.SloadSEvent::total   2743697717                      
system.ruby.L1Cache_Controller.Stallfwdfrom_in |         476     17.02%     17.02% |         848     30.33%     47.35% |         584     20.89%     68.24% |         888     31.76%    100.00%
system.ruby.L1Cache_Controller.Stallfwdfrom_in::total         2796                      
system.ruby.L1Cache_Controller.Stallmandatory_in |   375287217     24.49%     24.49% |   327410335     21.36%     45.85% |   311243669     20.31%     66.16% |   518690515     33.84%    100.00%
system.ruby.L1Cache_Controller.Stallmandatory_in::total   1532631736                      
system.ruby.L1Cache_Controller.allocI_load |     2691688     24.68%     24.68% |     2492164     22.85%     47.53% |     2337044     21.43%     68.95% |     3386550     31.05%    100.00%
system.ruby.L1Cache_Controller.allocI_load::total     10907446                      
system.ruby.L1Cache_Controller.allocI_store |      831159     23.48%     23.48% |      678701     19.17%     42.65% |      661971     18.70%     61.34% |     1368538     38.66%    100.00%
system.ruby.L1Cache_Controller.allocI_store::total      3540369                      
system.ruby.L1Cache_Controller.allocTBE  |     3796159     24.84%     24.84% |     3330210     21.79%     46.64% |     3166238     20.72%     67.36% |     4988460     32.64%    100.00%
system.ruby.L1Cache_Controller.allocTBE::total     15281067                      
system.ruby.L1Cache_Controller.deallocTBE |       13900     43.68%     43.68% |        6001     18.86%     62.54% |        6153     19.34%     81.87% |        5768     18.13%    100.00%
system.ruby.L1Cache_Controller.deallocTBE::total        31822                      
system.ruby.L1Cache_Controller.deallocfwdfrom_in |     3521825     24.38%     24.38% |     3169854     21.95%     46.33% |     2997991     20.76%     67.09% |     4754078     32.91%    100.00%
system.ruby.L1Cache_Controller.deallocfwdfrom_in::total     14443748                      
system.ruby.L1Cache_Controller.externalloadSrespfrom_in |     2691688     24.68%     24.68% |     2492164     22.85%     47.53% |     2337044     21.43%     68.95% |     3386550     31.05%    100.00%
system.ruby.L1Cache_Controller.externalloadSrespfrom_in::total     10907446                      
system.ruby.L1Cache_Controller.externalstoreMrespfrom_in |     1117039     25.18%     25.18% |      855373     19.28%     44.46% |      846572     19.08%     63.55% |     1617053     36.45%    100.00%
system.ruby.L1Cache_Controller.externalstoreMrespfrom_in::total      4436037                      
system.ruby.LD.hit_latency_hist_seqr::bucket_size            1                      
system.ruby.LD.hit_latency_hist_seqr::max_bucket            9                      
system.ruby.LD.hit_latency_hist_seqr::samples    509177715                      
system.ruby.LD.hit_latency_hist_seqr     |   509177715    100.00%    100.00% |           0      0.00%    100.00% |           0      0.00%    100.00% |           0      0.00%    100.00% |           0      0.00%    100.00% |           0      0.00%    100.00% |           0      0.00%    100.00% |           0      0.00%    100.00% |           0      0.00%    100.00% |           0      0.00%    100.00%
system.ruby.LD.hit_latency_hist_seqr::total    509177715                      
system.ruby.LD.latency_hist_seqr::bucket_size            1                      
system.ruby.LD.latency_hist_seqr::max_bucket            9                      
system.ruby.LD.latency_hist_seqr::samples    517144820                      
system.ruby.LD.latency_hist_seqr         |   517144820    100.00%    100.00% |           0      0.00%    100.00% |           0      0.00%    100.00% |           0      0.00%    100.00% |           0      0.00%    100.00% |           0      0.00%    100.00% |           0      0.00%    100.00% |           0      0.00%    100.00% |           0      0.00%    100.00% |           0      0.00%    100.00%
system.ruby.LD.latency_hist_seqr::total     517144820                      
system.ruby.LD.miss_latency_hist_seqr::bucket_size            1                      
system.ruby.LD.miss_latency_hist_seqr::max_bucket            9                      
system.ruby.LD.miss_latency_hist_seqr::samples      7967105                      
system.ruby.LD.miss_latency_hist_seqr    |     7967105    100.00%    100.00% |           0      0.00%    100.00% |           0      0.00%    100.00% |           0      0.00%    100.00% |           0      0.00%    100.00% |           0      0.00%    100.00% |           0      0.00%    100.00% |           0      0.00%    100.00% |           0      0.00%    100.00% |           0      0.00%    100.00%
system.ruby.LD.miss_latency_hist_seqr::total      7967105                      
system.ruby.Locked_RMW_Read.hit_latency_hist_seqr::bucket_size            1                      
system.ruby.Locked_RMW_Read.hit_latency_hist_seqr::max_bucket            9                      
system.ruby.Locked_RMW_Read.hit_latency_hist_seqr::samples       154647                      
system.ruby.Locked_RMW_Read.hit_latency_hist_seqr |      154647    100.00%    100.00% |           0      0.00%    100.00% |           0      0.00%    100.00% |           0      0.00%    100.00% |           0      0.00%    100.00% |           0      0.00%    100.00% |           0      0.00%    100.00% |           0      0.00%    100.00% |           0      0.00%    100.00% |           0      0.00%    100.00%
system.ruby.Locked_RMW_Read.hit_latency_hist_seqr::total       154647                      
system.ruby.Locked_RMW_Read.latency_hist_seqr::bucket_size            1                      
system.ruby.Locked_RMW_Read.latency_hist_seqr::max_bucket            9                      
system.ruby.Locked_RMW_Read.latency_hist_seqr::samples       219219                      
system.ruby.Locked_RMW_Read.latency_hist_seqr |      219219    100.00%    100.00% |           0      0.00%    100.00% |           0      0.00%    100.00% |           0      0.00%    100.00% |           0      0.00%    100.00% |           0      0.00%    100.00% |           0      0.00%    100.00% |           0      0.00%    100.00% |           0      0.00%    100.00% |           0      0.00%    100.00%
system.ruby.Locked_RMW_Read.latency_hist_seqr::total       219219                      
system.ruby.Locked_RMW_Read.miss_latency_hist_seqr::bucket_size            1                      
system.ruby.Locked_RMW_Read.miss_latency_hist_seqr::max_bucket            9                      
system.ruby.Locked_RMW_Read.miss_latency_hist_seqr::samples        64572                      
system.ruby.Locked_RMW_Read.miss_latency_hist_seqr |       64572    100.00%    100.00% |           0      0.00%    100.00% |           0      0.00%    100.00% |           0      0.00%    100.00% |           0      0.00%    100.00% |           0      0.00%    100.00% |           0      0.00%    100.00% |           0      0.00%    100.00% |           0      0.00%    100.00% |           0      0.00%    100.00%
system.ruby.Locked_RMW_Read.miss_latency_hist_seqr::total        64572                      
system.ruby.Locked_RMW_Write.hit_latency_hist_seqr::bucket_size            1                      
system.ruby.Locked_RMW_Write.hit_latency_hist_seqr::max_bucket            9                      
system.ruby.Locked_RMW_Write.hit_latency_hist_seqr::samples       219219                      
system.ruby.Locked_RMW_Write.hit_latency_hist_seqr |      219219    100.00%    100.00% |           0      0.00%    100.00% |           0      0.00%    100.00% |           0      0.00%    100.00% |           0      0.00%    100.00% |           0      0.00%    100.00% |           0      0.00%    100.00% |           0      0.00%    100.00% |           0      0.00%    100.00% |           0      0.00%    100.00%
system.ruby.Locked_RMW_Write.hit_latency_hist_seqr::total       219219                      
system.ruby.Locked_RMW_Write.latency_hist_seqr::bucket_size            1                      
system.ruby.Locked_RMW_Write.latency_hist_seqr::max_bucket            9                      
system.ruby.Locked_RMW_Write.latency_hist_seqr::samples       219219                      
system.ruby.Locked_RMW_Write.latency_hist_seqr |      219219    100.00%    100.00% |           0      0.00%    100.00% |           0      0.00%    100.00% |           0      0.00%    100.00% |           0      0.00%    100.00% |           0      0.00%    100.00% |           0      0.00%    100.00% |           0      0.00%    100.00% |           0      0.00%    100.00% |           0      0.00%    100.00%
system.ruby.Locked_RMW_Write.latency_hist_seqr::total       219219                      
system.ruby.RMW_Read.hit_latency_hist_seqr::bucket_size            1                      
system.ruby.RMW_Read.hit_latency_hist_seqr::max_bucket            9                      
system.ruby.RMW_Read.hit_latency_hist_seqr::samples     52432352                      
system.ruby.RMW_Read.hit_latency_hist_seqr |    52432352    100.00%    100.00% |           0      0.00%    100.00% |           0      0.00%    100.00% |           0      0.00%    100.00% |           0      0.00%    100.00% |           0      0.00%    100.00% |           0      0.00%    100.00% |           0      0.00%    100.00% |           0      0.00%    100.00% |           0      0.00%    100.00%
system.ruby.RMW_Read.hit_latency_hist_seqr::total     52432352                      
system.ruby.RMW_Read.latency_hist_seqr::bucket_size            1                      
system.ruby.RMW_Read.latency_hist_seqr::max_bucket            9                      
system.ruby.RMW_Read.latency_hist_seqr::samples     53378654                      
system.ruby.RMW_Read.latency_hist_seqr   |    53378654    100.00%    100.00% |           0      0.00%    100.00% |           0      0.00%    100.00% |           0      0.00%    100.00% |           0      0.00%    100.00% |           0      0.00%    100.00% |           0      0.00%    100.00% |           0      0.00%    100.00% |           0      0.00%    100.00% |           0      0.00%    100.00%
system.ruby.RMW_Read.latency_hist_seqr::total     53378654                      
system.ruby.RMW_Read.miss_latency_hist_seqr::bucket_size            1                      
system.ruby.RMW_Read.miss_latency_hist_seqr::max_bucket            9                      
system.ruby.RMW_Read.miss_latency_hist_seqr::samples       946302                      
system.ruby.RMW_Read.miss_latency_hist_seqr |      946302    100.00%    100.00% |           0      0.00%    100.00% |           0      0.00%    100.00% |           0      0.00%    100.00% |           0      0.00%    100.00% |           0      0.00%    100.00% |           0      0.00%    100.00% |           0      0.00%    100.00% |           0      0.00%    100.00% |           0      0.00%    100.00%
system.ruby.RMW_Read.miss_latency_hist_seqr::total       946302                      
system.ruby.ST.hit_latency_hist_seqr::bucket_size            1                      
system.ruby.ST.hit_latency_hist_seqr::max_bucket            9                      
system.ruby.ST.hit_latency_hist_seqr::samples    219445161                      
system.ruby.ST.hit_latency_hist_seqr     |   219445161    100.00%    100.00% |           0      0.00%    100.00% |           0      0.00%    100.00% |           0      0.00%    100.00% |           0      0.00%    100.00% |           0      0.00%    100.00% |           0      0.00%    100.00% |           0      0.00%    100.00% |           0      0.00%    100.00% |           0      0.00%    100.00%
system.ruby.ST.hit_latency_hist_seqr::total    219445161                      
system.ruby.ST.latency_hist_seqr::bucket_size            1                      
system.ruby.ST.latency_hist_seqr::max_bucket            9                      
system.ruby.ST.latency_hist_seqr::samples    222870324                      
system.ruby.ST.latency_hist_seqr         |   222870324    100.00%    100.00% |           0      0.00%    100.00% |           0      0.00%    100.00% |           0      0.00%    100.00% |           0      0.00%    100.00% |           0      0.00%    100.00% |           0      0.00%    100.00% |           0      0.00%    100.00% |           0      0.00%    100.00% |           0      0.00%    100.00%
system.ruby.ST.latency_hist_seqr::total     222870324                      
system.ruby.ST.miss_latency_hist_seqr::bucket_size            1                      
system.ruby.ST.miss_latency_hist_seqr::max_bucket            9                      
system.ruby.ST.miss_latency_hist_seqr::samples      3425163                      
system.ruby.ST.miss_latency_hist_seqr    |     3425163    100.00%    100.00% |           0      0.00%    100.00% |           0      0.00%    100.00% |           0      0.00%    100.00% |           0      0.00%    100.00% |           0      0.00%    100.00% |           0      0.00%    100.00% |           0      0.00%    100.00% |           0      0.00%    100.00% |           0      0.00%    100.00%
system.ruby.ST.miss_latency_hist_seqr::total      3425163                      
system.ruby.dir_cntrl0.fully_busy_cycles       116539                       # cycles for which number of transistions == max transitions
system.ruby.dir_cntrl0.fwdFrom.avg_buf_msgs     0.006674                       # Average number of messages in buffer
system.ruby.dir_cntrl0.fwdFrom.avg_stall_time  2999.998431                       # Average number of cycles messages are stalled in this MB
system.ruby.dir_cntrl0.reqTo.avg_buf_msgs     0.002330                       # Average number of messages in buffer
system.ruby.dir_cntrl0.reqTo.avg_stall_time  5494.338251                       # Average number of cycles messages are stalled in this MB
system.ruby.dir_cntrl0.requestToMemory.avg_buf_msgs     0.001528                       # Average number of messages in buffer
system.ruby.dir_cntrl0.requestToMemory.avg_stall_time   500.003715                       # Average number of cycles messages are stalled in this MB
system.ruby.dir_cntrl0.respFrom.avg_buf_msgs     0.007082                       # Average number of messages in buffer
system.ruby.dir_cntrl0.respFrom.avg_stall_time  3000.069410                       # Average number of cycles messages are stalled in this MB
system.ruby.dir_cntrl0.respTo.avg_buf_msgs     0.000003                       # Average number of messages in buffer
system.ruby.dir_cntrl0.respTo.avg_stall_time 11560.401151                       # Average number of cycles messages are stalled in this MB
system.ruby.dir_cntrl0.responseFromMemory.avg_buf_msgs     0.002698                       # Average number of messages in buffer
system.ruby.dir_cntrl0.responseFromMemory.avg_stall_time   499.999980                       # Average number of cycles messages are stalled in this MB
system.ruby.dir_cntrl1.fully_busy_cycles        91268                       # cycles for which number of transistions == max transitions
system.ruby.dir_cntrl1.fwdFrom.avg_buf_msgs     0.006321                       # Average number of messages in buffer
system.ruby.dir_cntrl1.fwdFrom.avg_stall_time  2999.994809                       # Average number of cycles messages are stalled in this MB
system.ruby.dir_cntrl1.reqTo.avg_buf_msgs     0.002193                       # Average number of messages in buffer
system.ruby.dir_cntrl1.reqTo.avg_stall_time  5134.256379                       # Average number of cycles messages are stalled in this MB
system.ruby.dir_cntrl1.requestToMemory.avg_buf_msgs     0.001433                       # Average number of messages in buffer
system.ruby.dir_cntrl1.requestToMemory.avg_stall_time   500.002961                       # Average number of cycles messages are stalled in this MB
system.ruby.dir_cntrl1.respFrom.avg_buf_msgs     0.006670                       # Average number of messages in buffer
system.ruby.dir_cntrl1.respFrom.avg_stall_time  3000.074180                       # Average number of cycles messages are stalled in this MB
system.ruby.dir_cntrl1.respTo.avg_buf_msgs     0.000010                       # Average number of messages in buffer
system.ruby.dir_cntrl1.respTo.avg_stall_time 10420.759706                       # Average number of cycles messages are stalled in this MB
system.ruby.dir_cntrl1.responseFromMemory.avg_buf_msgs     0.002520                       # Average number of messages in buffer
system.ruby.dir_cntrl1.responseFromMemory.avg_stall_time   499.999958                       # Average number of cycles messages are stalled in this MB
system.ruby.dir_cntrl2.fully_busy_cycles       513394                       # cycles for which number of transistions == max transitions
system.ruby.dir_cntrl2.fwdFrom.avg_buf_msgs     0.006638                       # Average number of messages in buffer
system.ruby.dir_cntrl2.fwdFrom.avg_stall_time  3000.009690                       # Average number of cycles messages are stalled in this MB
system.ruby.dir_cntrl2.reqTo.avg_buf_msgs     0.002433                       # Average number of messages in buffer
system.ruby.dir_cntrl2.reqTo.avg_stall_time  5160.563490                       # Average number of cycles messages are stalled in this MB
system.ruby.dir_cntrl2.requestToMemory.avg_buf_msgs     0.001487                       # Average number of messages in buffer
system.ruby.dir_cntrl2.requestToMemory.avg_stall_time   500.012238                       # Average number of cycles messages are stalled in this MB
system.ruby.dir_cntrl2.respFrom.avg_buf_msgs     0.006999                       # Average number of messages in buffer
system.ruby.dir_cntrl2.respFrom.avg_stall_time  3000.114991                       # Average number of cycles messages are stalled in this MB
system.ruby.dir_cntrl2.respTo.avg_buf_msgs     0.000007                       # Average number of messages in buffer
system.ruby.dir_cntrl2.respTo.avg_stall_time 11215.757226                       # Average number of cycles messages are stalled in this MB
system.ruby.dir_cntrl2.responseFromMemory.avg_buf_msgs     0.002601                       # Average number of messages in buffer
system.ruby.dir_cntrl2.responseFromMemory.avg_stall_time   499.999911                       # Average number of cycles messages are stalled in this MB
system.ruby.dir_cntrl3.fully_busy_cycles        68569                       # cycles for which number of transistions == max transitions
system.ruby.dir_cntrl3.fwdFrom.avg_buf_msgs     0.006180                       # Average number of messages in buffer
system.ruby.dir_cntrl3.fwdFrom.avg_stall_time  2999.990925                       # Average number of cycles messages are stalled in this MB
system.ruby.dir_cntrl3.reqTo.avg_buf_msgs     0.002144                       # Average number of messages in buffer
system.ruby.dir_cntrl3.reqTo.avg_stall_time  4935.144108                       # Average number of cycles messages are stalled in this MB
system.ruby.dir_cntrl3.requestToMemory.avg_buf_msgs     0.001416                       # Average number of messages in buffer
system.ruby.dir_cntrl3.requestToMemory.avg_stall_time   500.001580                       # Average number of cycles messages are stalled in this MB
system.ruby.dir_cntrl3.respFrom.avg_buf_msgs     0.006562                       # Average number of messages in buffer
system.ruby.dir_cntrl3.respFrom.avg_stall_time  3000.133122                       # Average number of cycles messages are stalled in this MB
system.ruby.dir_cntrl3.respTo.avg_buf_msgs     0.000003                       # Average number of messages in buffer
system.ruby.dir_cntrl3.respTo.avg_stall_time 11188.707578                       # Average number of cycles messages are stalled in this MB
system.ruby.dir_cntrl3.responseFromMemory.avg_buf_msgs     0.002494                       # Average number of messages in buffer
system.ruby.dir_cntrl3.responseFromMemory.avg_stall_time   499.999980                       # Average number of cycles messages are stalled in this MB
system.ruby.dma_cntrl0.cache.demand_accesses            0                       # Number of cache demand accesses
system.ruby.dma_cntrl0.cache.demand_hits            0                       # Number of cache demand hits
system.ruby.dma_cntrl0.cache.demand_misses            0                       # Number of cache demand misses
system.ruby.dma_cntrl0.fully_busy_cycles        59608                       # cycles for which number of transistions == max transitions
system.ruby.dma_cntrl0.fwdFrom.avg_buf_msgs     0.000001                       # Average number of messages in buffer
system.ruby.dma_cntrl0.fwdFrom.avg_stall_time  4863.211795                       # Average number of cycles messages are stalled in this MB
system.ruby.dma_cntrl0.mandatoryQueue.avg_buf_msgs     0.001351                       # Average number of messages in buffer
system.ruby.dma_cntrl0.mandatoryQueue.avg_stall_time 799877.227355                       # Average number of cycles messages are stalled in this MB
system.ruby.dma_cntrl0.reqTo.avg_buf_msgs     0.000005                       # Average number of messages in buffer
system.ruby.dma_cntrl0.reqTo.avg_stall_time   324.617607                       # Average number of cycles messages are stalled in this MB
system.ruby.dma_cntrl0.respFrom.avg_buf_msgs     0.000002                       # Average number of messages in buffer
system.ruby.dma_cntrl0.respFrom.avg_stall_time 11358.090538                       # Average number of cycles messages are stalled in this MB
system.ruby.dma_cntrl0.respTo.avg_buf_msgs     0.000000                       # Average number of messages in buffer
system.ruby.dma_cntrl0.respTo.avg_stall_time    23.996420                       # Average number of cycles messages are stalled in this MB
system.ruby.hit_latency_hist_seqr::bucket_size            1                      
system.ruby.hit_latency_hist_seqr::max_bucket            9                      
system.ruby.hit_latency_hist_seqr::samples   3324576209                      
system.ruby.hit_latency_hist_seqr        |  3324576209    100.00%    100.00% |           0      0.00%    100.00% |           0      0.00%    100.00% |           0      0.00%    100.00% |           0      0.00%    100.00% |           0      0.00%    100.00% |           0      0.00%    100.00% |           0      0.00%    100.00% |           0      0.00%    100.00% |           0      0.00%    100.00%
system.ruby.hit_latency_hist_seqr::total   3324576209                      
system.ruby.io_controller.cache.demand_accesses            0                       # Number of cache demand accesses
system.ruby.io_controller.cache.demand_hits            0                       # Number of cache demand hits
system.ruby.io_controller.cache.demand_misses            0                       # Number of cache demand misses
system.ruby.l1_cntrl0.cache.demand_accesses            0                       # Number of cache demand accesses
system.ruby.l1_cntrl0.cache.demand_hits             0                       # Number of cache demand hits
system.ruby.l1_cntrl0.cache.demand_misses            0                       # Number of cache demand misses
system.ruby.l1_cntrl0.fully_busy_cycles      95581087                       # cycles for which number of transistions == max transitions
system.ruby.l1_cntrl0.fwdFrom.avg_buf_msgs    22.497014                       # Average number of messages in buffer
system.ruby.l1_cntrl0.fwdFrom.avg_stall_time  6388.630292                       # Average number of cycles messages are stalled in this MB
system.ruby.l1_cntrl0.mandatoryQueue.avg_buf_msgs     0.254663                       # Average number of messages in buffer
system.ruby.l1_cntrl0.mandatoryQueue.avg_stall_time  2717.944806                       # Average number of cycles messages are stalled in this MB
system.ruby.l1_cntrl0.reqTo.avg_buf_msgs     0.002178                       # Average number of messages in buffer
system.ruby.l1_cntrl0.reqTo.avg_stall_time   499.918949                       # Average number of cycles messages are stalled in this MB
system.ruby.l1_cntrl0.respFrom.avg_buf_msgs     0.001139                       # Average number of messages in buffer
system.ruby.l1_cntrl0.respFrom.avg_stall_time 16470.599697                       # Average number of cycles messages are stalled in this MB
system.ruby.l1_cntrl0.respTo.avg_buf_msgs     0.000022                       # Average number of messages in buffer
system.ruby.l1_cntrl0.respTo.avg_stall_time   843.186114                       # Average number of cycles messages are stalled in this MB
system.ruby.l1_cntrl1.cache.demand_accesses            0                       # Number of cache demand accesses
system.ruby.l1_cntrl1.cache.demand_hits             0                       # Number of cache demand hits
system.ruby.l1_cntrl1.cache.demand_misses            0                       # Number of cache demand misses
system.ruby.l1_cntrl1.fully_busy_cycles      83433092                       # cycles for which number of transistions == max transitions
system.ruby.l1_cntrl1.fwdFrom.avg_buf_msgs    21.693045                       # Average number of messages in buffer
system.ruby.l1_cntrl1.fwdFrom.avg_stall_time  6699.930027                       # Average number of cycles messages are stalled in this MB
system.ruby.l1_cntrl1.mandatoryQueue.avg_buf_msgs     0.236587                       # Average number of messages in buffer
system.ruby.l1_cntrl1.mandatoryQueue.avg_stall_time  2426.652530                       # Average number of cycles messages are stalled in this MB
system.ruby.l1_cntrl1.reqTo.avg_buf_msgs     0.001934                       # Average number of messages in buffer
system.ruby.l1_cntrl1.reqTo.avg_stall_time   500.066570                       # Average number of cycles messages are stalled in this MB
system.ruby.l1_cntrl1.respFrom.avg_buf_msgs     0.000997                       # Average number of messages in buffer
system.ruby.l1_cntrl1.respFrom.avg_stall_time 16938.107020                       # Average number of cycles messages are stalled in this MB
system.ruby.l1_cntrl1.respTo.avg_buf_msgs     0.000014                       # Average number of messages in buffer
system.ruby.l1_cntrl1.respTo.avg_stall_time   602.452631                       # Average number of cycles messages are stalled in this MB
system.ruby.l1_cntrl2.cache.demand_accesses            0                       # Number of cache demand accesses
system.ruby.l1_cntrl2.cache.demand_hits             0                       # Number of cache demand hits
system.ruby.l1_cntrl2.cache.demand_misses            0                       # Number of cache demand misses
system.ruby.l1_cntrl2.fully_busy_cycles      79305467                       # cycles for which number of transistions == max transitions
system.ruby.l1_cntrl2.fwdFrom.avg_buf_msgs    17.220355                       # Average number of messages in buffer
system.ruby.l1_cntrl2.fwdFrom.avg_stall_time  6473.188696                       # Average number of cycles messages are stalled in this MB
system.ruby.l1_cntrl2.mandatoryQueue.avg_buf_msgs     0.238692                       # Average number of messages in buffer
system.ruby.l1_cntrl2.mandatoryQueue.avg_stall_time  2358.113696                       # Average number of cycles messages are stalled in this MB
system.ruby.l1_cntrl2.reqTo.avg_buf_msgs     0.001834                       # Average number of messages in buffer
system.ruby.l1_cntrl2.reqTo.avg_stall_time   500.082840                       # Average number of cycles messages are stalled in this MB
system.ruby.l1_cntrl2.respFrom.avg_buf_msgs     0.000949                       # Average number of messages in buffer
system.ruby.l1_cntrl2.respFrom.avg_stall_time 16074.004675                       # Average number of cycles messages are stalled in this MB
system.ruby.l1_cntrl2.respTo.avg_buf_msgs     0.000014                       # Average number of messages in buffer
system.ruby.l1_cntrl2.respTo.avg_stall_time   593.159830                       # Average number of cycles messages are stalled in this MB
system.ruby.l1_cntrl3.cache.demand_accesses            0                       # Number of cache demand accesses
system.ruby.l1_cntrl3.cache.demand_hits             0                       # Number of cache demand hits
system.ruby.l1_cntrl3.cache.demand_misses            0                       # Number of cache demand misses
system.ruby.l1_cntrl3.fully_busy_cycles     132047060                       # cycles for which number of transistions == max transitions
system.ruby.l1_cntrl3.fwdFrom.avg_buf_msgs    24.384423                       # Average number of messages in buffer
system.ruby.l1_cntrl3.fwdFrom.avg_stall_time  6566.577684                       # Average number of cycles messages are stalled in this MB
system.ruby.l1_cntrl3.mandatoryQueue.avg_buf_msgs     0.382976                       # Average number of messages in buffer
system.ruby.l1_cntrl3.mandatoryQueue.avg_stall_time  3511.278341                       # Average number of cycles messages are stalled in this MB
system.ruby.l1_cntrl3.reqTo.avg_buf_msgs     0.002899                       # Average number of messages in buffer
system.ruby.l1_cntrl3.reqTo.avg_stall_time   500.101473                       # Average number of cycles messages are stalled in this MB
system.ruby.l1_cntrl3.respFrom.avg_buf_msgs     0.001490                       # Average number of messages in buffer
system.ruby.l1_cntrl3.respFrom.avg_stall_time 16512.343767                       # Average number of cycles messages are stalled in this MB
system.ruby.l1_cntrl3.respTo.avg_buf_msgs     0.000013                       # Average number of messages in buffer
system.ruby.l1_cntrl3.respTo.avg_stall_time   586.944626                       # Average number of cycles messages are stalled in this MB
system.ruby.latency_hist_seqr::bucket_size            1                      
system.ruby.latency_hist_seqr::max_bucket            9                      
system.ruby.latency_hist_seqr::samples     3339919692                      
system.ruby.latency_hist_seqr            |  3339919692    100.00%    100.00% |           0      0.00%    100.00% |           0      0.00%    100.00% |           0      0.00%    100.00% |           0      0.00%    100.00% |           0      0.00%    100.00% |           0      0.00%    100.00% |           0      0.00%    100.00% |           0      0.00%    100.00% |           0      0.00%    100.00%
system.ruby.latency_hist_seqr::total       3339919692                      
system.ruby.miss_latency_hist_seqr::bucket_size            1                      
system.ruby.miss_latency_hist_seqr::max_bucket            9                      
system.ruby.miss_latency_hist_seqr::samples     15343483                      
system.ruby.miss_latency_hist_seqr       |    15343483    100.00%    100.00% |           0      0.00%    100.00% |           0      0.00%    100.00% |           0      0.00%    100.00% |           0      0.00%    100.00% |           0      0.00%    100.00% |           0      0.00%    100.00% |           0      0.00%    100.00% |           0      0.00%    100.00% |           0      0.00%    100.00%
system.ruby.miss_latency_hist_seqr::total     15343483                      
system.ruby.network.average_flit_latency    16.417817                      
system.ruby.network.average_flit_network_latency    12.136009                      
system.ruby.network.average_flit_queueing_latency     4.281808                      
system.ruby.network.average_flit_vnet_latency |   15.010136                       |    5.004742                       |    9.640466                      
system.ruby.network.average_flit_vqueue_latency |    5.973876                       |    6.000024                       |    1.001181                      
system.ruby.network.average_hops             0.998771                      
system.ruby.network.average_packet_latency    15.134049                      
system.ruby.network.average_packet_network_latency    11.637316                      
system.ruby.network.average_packet_queueing_latency     3.496733                      
system.ruby.network.average_packet_vnet_latency |   24.925464                       |    5.004742                       |    7.954229                      
system.ruby.network.average_packet_vqueue_latency |    5.951674                       |    6.000024                       |    1.000789                      
system.ruby.network.avg_link_utilization     0.123736                      
system.ruby.network.avg_vc_load          |    0.051282     41.44%     41.44% |    0.005927      4.79%     46.24% |    0.005728      4.63%     50.86% |    0.005725      4.63%     55.49% |    0.009684      7.83%     63.32% |    0.001081      0.87%     64.19% |    0.001076      0.87%     65.06% |    0.001076      0.87%     65.93% |    0.031300     25.30%     91.23% |    0.003823      3.09%     94.32% |    0.003513      2.84%     97.16% |    0.003520      2.84%    100.00%
system.ruby.network.avg_vc_load::total       0.123736                      
system.ruby.network.ext_in_link_utilization    138773687                      
system.ruby.network.ext_out_link_utilization    138773687                      
system.ruby.network.flit_network_latency |  1155722598                       |    72471802                       |   455964300                      
system.ruby.network.flit_queueing_latency |   459965428                       |    86884111                       |    47352768                      
system.ruby.network.flits_injected       |    76996143     55.48%     55.48% |    14480627     10.43%     65.92% |    47296917     34.08%    100.00%
system.ruby.network.flits_injected::total    138773687                      
system.ruby.network.flits_received       |    76996143     55.48%     55.48% |    14480627     10.43%     65.92% |    47296917     34.08%    100.00%
system.ruby.network.flits_received::total    138773687                      
system.ruby.network.int_link_utilization    138603186                      
system.ruby.network.packet_network_latency |   385617245                       |    72471802                       |   236558058                      
system.ruby.network.packet_queueing_latency |    92077244                       |    86884111                       |    29763384                      
system.ruby.network.packets_injected     |    15470815     25.92%     25.92% |    14480627     24.26%     50.18% |    29739909     49.82%    100.00%
system.ruby.network.packets_injected::total     59691351                      
system.ruby.network.packets_received     |    15470815     25.92%     25.92% |    14480627     24.26%     50.18% |    29739909     49.82%    100.00%
system.ruby.network.packets_received::total     59691351                      
system.ruby.network.routers0.buffer_reads     68572649                      
system.ruby.network.routers0.buffer_writes     68572649                      
system.ruby.network.routers0.crossbar_activity     68572649                      
system.ruby.network.routers0.sw_input_arbiter_activity     68653037                      
system.ruby.network.routers0.sw_output_arbiter_activity     68572649                      
system.ruby.network.routers1.buffer_reads     67140311                      
system.ruby.network.routers1.buffer_writes     67140311                      
system.ruby.network.routers1.crossbar_activity     67140311                      
system.ruby.network.routers1.sw_input_arbiter_activity     67213531                      
system.ruby.network.routers1.sw_output_arbiter_activity     67140311                      
system.ruby.network.routers2.buffer_reads     65970765                      
system.ruby.network.routers2.buffer_writes     65970765                      
system.ruby.network.routers2.crossbar_activity     65970765                      
system.ruby.network.routers2.sw_input_arbiter_activity     66046369                      
system.ruby.network.routers2.sw_output_arbiter_activity     65970765                      
system.ruby.network.routers3.buffer_reads     75693148                      
system.ruby.network.routers3.buffer_writes     75693148                      
system.ruby.network.routers3.crossbar_activity     75693148                      
system.ruby.network.routers3.sw_input_arbiter_activity     75763507                      
system.ruby.network.routers3.sw_output_arbiter_activity     75693148                      
system.ruby.outstanding_req_hist_seqr::bucket_size            1                      
system.ruby.outstanding_req_hist_seqr::max_bucket            9                      
system.ruby.outstanding_req_hist_seqr::samples   3339919695                      
system.ruby.outstanding_req_hist_seqr::mean     1.000533                      
system.ruby.outstanding_req_hist_seqr::gmean     1.000370                      
system.ruby.outstanding_req_hist_seqr::stdev     0.023084                      
system.ruby.outstanding_req_hist_seqr    |           0      0.00%      0.00% |  3338139041     99.95%     99.95% |     1780654      0.05%    100.00% |           0      0.00%    100.00% |           0      0.00%    100.00% |           0      0.00%    100.00% |           0      0.00%    100.00% |           0      0.00%    100.00% |           0      0.00%    100.00% |           0      0.00%    100.00%
system.ruby.outstanding_req_hist_seqr::total   3339919695                      
system.switch_cpus0.Branches                 93722564                       # Number of branches fetched
system.switch_cpus0.committedInsts          438363485                       # Number of instructions committed
system.switch_cpus0.committedOps            814808134                       # Number of ops (including micro ops) committed
system.switch_cpus0.dtb.rdAccesses          122260107                       # TLB accesses on read requests
system.switch_cpus0.dtb.rdMisses               398200                       # TLB misses on read requests
system.switch_cpus0.dtb.wrAccesses           51255798                       # TLB accesses on write requests
system.switch_cpus0.dtb.wrMisses               261104                       # TLB misses on write requests
system.switch_cpus0.idle_fraction            0.352438                       # Percentage of idle cycles
system.switch_cpus0.itb.rdAccesses                  0                       # TLB accesses on read requests
system.switch_cpus0.itb.rdMisses                    0                       # TLB misses on read requests
system.switch_cpus0.itb.wrAccesses          582325756                       # TLB accesses on write requests
system.switch_cpus0.itb.wrMisses                15538                       # TLB misses on write requests
system.switch_cpus0.kern.inst.arm                   0                       # number of arm instructions executed
system.switch_cpus0.kern.inst.quiesce               0                       # number of quiesce instructions executed
system.switch_cpus0.not_idle_fraction        0.647562                       # Percentage of non-idle cycles
system.switch_cpus0.numCycles              3363211521                       # number of cpu cycles simulated
system.switch_cpus0.numWorkItemsCompleted            0                       # number of work items this cpu completed
system.switch_cpus0.numWorkItemsStarted             0                       # number of work items this cpu started
system.switch_cpus0.num_busy_cycles      2177889053.431633                       # Number of busy cycles
system.switch_cpus0.num_cc_register_reads    467907262                       # number of times the CC registers were read
system.switch_cpus0.num_cc_register_writes    312432895                       # number of times the CC registers were written
system.switch_cpus0.num_conditional_control_insts     83536812                       # number of instructions that are conditional controls
system.switch_cpus0.num_fp_alu_accesses          1774                       # Number of float alu accesses
system.switch_cpus0.num_fp_insts                 1774                       # number of float instructions
system.switch_cpus0.num_fp_register_reads         1646                       # number of times the floating registers were read
system.switch_cpus0.num_fp_register_writes         1030                       # number of times the floating registers were written
system.switch_cpus0.num_func_calls            4978361                       # number of times a function call or return occured
system.switch_cpus0.num_idle_cycles      1185322467.568367                       # Number of idle cycles
system.switch_cpus0.num_int_alu_accesses    811743025                       # Number of integer alu accesses
system.switch_cpus0.num_int_insts           811743025                       # number of integer instructions
system.switch_cpus0.num_int_register_reads   1550157189                       # number of times the integer registers were read
system.switch_cpus0.num_int_register_writes    669363430                       # number of times the integer registers were written
system.switch_cpus0.num_load_insts          121517385                       # Number of load instructions
system.switch_cpus0.num_mem_refs            172409605                       # number of memory refs
system.switch_cpus0.num_store_insts          50892220                       # Number of store instructions
system.switch_cpus0.num_vec_alu_accesses            0                       # Number of vector alu accesses
system.switch_cpus0.num_vec_insts                   0                       # number of vector instructions
system.switch_cpus0.num_vec_register_reads            0                       # number of times the vector registers were read
system.switch_cpus0.num_vec_register_writes            0                       # number of times the vector registers were written
system.switch_cpus0.op_class::No_OpClass      1563232      0.19%      0.19% # Class of executed instruction
system.switch_cpus0.op_class::IntAlu        639784392     78.51%     78.70% # Class of executed instruction
system.switch_cpus0.op_class::IntMult          691331      0.08%     78.79% # Class of executed instruction
system.switch_cpus0.op_class::IntDiv           430560      0.05%     78.84% # Class of executed instruction
system.switch_cpus0.op_class::FloatAdd             61      0.00%     78.84% # Class of executed instruction
system.switch_cpus0.op_class::FloatCmp              0      0.00%     78.84% # Class of executed instruction
system.switch_cpus0.op_class::FloatCvt            128      0.00%     78.84% # Class of executed instruction
system.switch_cpus0.op_class::FloatMult             0      0.00%     78.84% # Class of executed instruction
system.switch_cpus0.op_class::FloatMultAcc            0      0.00%     78.84% # Class of executed instruction
system.switch_cpus0.op_class::FloatDiv              0      0.00%     78.84% # Class of executed instruction
system.switch_cpus0.op_class::FloatMisc             0      0.00%     78.84% # Class of executed instruction
system.switch_cpus0.op_class::FloatSqrt             0      0.00%     78.84% # Class of executed instruction
system.switch_cpus0.op_class::SimdAdd              66      0.00%     78.84% # Class of executed instruction
system.switch_cpus0.op_class::SimdAddAcc            0      0.00%     78.84% # Class of executed instruction
system.switch_cpus0.op_class::SimdAlu             105      0.00%     78.84% # Class of executed instruction
system.switch_cpus0.op_class::SimdCmp               0      0.00%     78.84% # Class of executed instruction
system.switch_cpus0.op_class::SimdCvt             132      0.00%     78.84% # Class of executed instruction
system.switch_cpus0.op_class::SimdMisc             72      0.00%     78.84% # Class of executed instruction
system.switch_cpus0.op_class::SimdMult              0      0.00%     78.84% # Class of executed instruction
system.switch_cpus0.op_class::SimdMultAcc            0      0.00%     78.84% # Class of executed instruction
system.switch_cpus0.op_class::SimdShift            12      0.00%     78.84% # Class of executed instruction
system.switch_cpus0.op_class::SimdShiftAcc            0      0.00%     78.84% # Class of executed instruction
system.switch_cpus0.op_class::SimdDiv               0      0.00%     78.84% # Class of executed instruction
system.switch_cpus0.op_class::SimdSqrt              0      0.00%     78.84% # Class of executed instruction
system.switch_cpus0.op_class::SimdFloatAdd            6      0.00%     78.84% # Class of executed instruction
system.switch_cpus0.op_class::SimdFloatAlu            0      0.00%     78.84% # Class of executed instruction
system.switch_cpus0.op_class::SimdFloatCmp            0      0.00%     78.84% # Class of executed instruction
system.switch_cpus0.op_class::SimdFloatCvt           12      0.00%     78.84% # Class of executed instruction
system.switch_cpus0.op_class::SimdFloatDiv            0      0.00%     78.84% # Class of executed instruction
system.switch_cpus0.op_class::SimdFloatMisc            0      0.00%     78.84% # Class of executed instruction
system.switch_cpus0.op_class::SimdFloatMult            6      0.00%     78.84% # Class of executed instruction
system.switch_cpus0.op_class::SimdFloatMultAcc            0      0.00%     78.84% # Class of executed instruction
system.switch_cpus0.op_class::SimdFloatSqrt            0      0.00%     78.84% # Class of executed instruction
system.switch_cpus0.op_class::SimdReduceAdd            0      0.00%     78.84% # Class of executed instruction
system.switch_cpus0.op_class::SimdReduceAlu            0      0.00%     78.84% # Class of executed instruction
system.switch_cpus0.op_class::SimdReduceCmp            0      0.00%     78.84% # Class of executed instruction
system.switch_cpus0.op_class::SimdFloatReduceAdd            0      0.00%     78.84% # Class of executed instruction
system.switch_cpus0.op_class::SimdFloatReduceCmp            0      0.00%     78.84% # Class of executed instruction
[...]
system.mem_ctrls1.rank0.totalEnergy      903030894405                       # Total energy per rank (pJ)
system.mem_ctrls1.rank0.averagePower       537.005083                       # Core power per rank (mW)
system.mem_ctrls1.rank0.totalIdleTime               0                       # Total Idle time Per DRAM Rank
system.mem_ctrls1.rank0.memoryStateTime::IDLE 409118257050                       # Time in different power states
system.mem_ctrls1.rank0.memoryStateTime::REF  56152460000                       # Time in different power states
system.mem_ctrls1.rank0.memoryStateTime::SREF            0                       # Time in different power states
system.mem_ctrls1.rank0.memoryStateTime::PRE_PDN            0                       # Time in different power states
system.mem_ctrls1.rank0.memoryStateTime::ACT 1216335141951                       # Time in different power states
system.mem_ctrls1.rank0.memoryStateTime::ACT_PDN            0                       # Time in different power states
system.mem_ctrls1.power_state.pwrStateResidencyTicks::UNDEFINED 102742796095001                       # Cumulative time (in ticks) in various power states
system.cpu_voltage_domain.voltage                   1                       # Voltage in Volts
system.iobus.trans_dist::ReadReq                  409                       # Transaction distribution
system.iobus.trans_dist::ReadResp                 409                       # Transaction distribution
system.iobus.trans_dist::WriteReq                7424                       # Transaction distribution
system.iobus.trans_dist::WriteResp               7424                       # Transaction distribution
system.iobus.pkt_count_system.pc.south_bridge.io_apic.int_master::system.ruby.l1_cntrl1.sequencer.pio-slave-port          212                       # Packet count per connected master and slave (bytes)
system.iobus.pkt_count_system.pc.south_bridge.io_apic.int_master::total          212                       # Packet count per connected master and slave (bytes)
system.iobus.pkt_count_system.ruby.l1_cntrl0.sequencer.mem-master-port::system.ruby.l1_cntrl0.sequencer.pio-slave-port         3590                       # Packet count per connected master and slave (bytes)
system.iobus.pkt_count_system.ruby.l1_cntrl0.sequencer.mem-master-port::system.ruby.l1_cntrl1.sequencer.pio-slave-port           58                       # Packet count per connected master and slave (bytes)
system.iobus.pkt_count_system.ruby.l1_cntrl0.sequencer.mem-master-port::system.ruby.l1_cntrl2.sequencer.pio-slave-port           58                       # Packet count per connected master and slave (bytes)
system.iobus.pkt_count_system.ruby.l1_cntrl0.sequencer.mem-master-port::system.ruby.l1_cntrl3.sequencer.pio-slave-port           56                       # Packet count per connected master and slave (bytes)
system.iobus.pkt_count_system.ruby.l1_cntrl0.sequencer.mem-master-port::total         3762                       # Packet count per connected master and slave (bytes)
system.iobus.pkt_count_system.ruby.l1_cntrl1.sequencer.mem-master-port::system.pc.south_bridge.ide.pio           82                       # Packet count per connected master and slave (bytes)
system.iobus.pkt_count_system.ruby.l1_cntrl1.sequencer.mem-master-port::system.pc.com_1.pio          830                       # Packet count per connected master and slave (bytes)
system.iobus.pkt_count_system.ruby.l1_cntrl1.sequencer.mem-master-port::system.ruby.l1_cntrl0.sequencer.pio-slave-port           12                       # Packet count per connected master and slave (bytes)
system.iobus.pkt_count_system.ruby.l1_cntrl1.sequencer.mem-master-port::system.ruby.l1_cntrl1.sequencer.pio-slave-port         3524                       # Packet count per connected master and slave (bytes)
system.iobus.pkt_count_system.ruby.l1_cntrl1.sequencer.mem-master-port::system.ruby.l1_cntrl2.sequencer.pio-slave-port           12                       # Packet count per connected master and slave (bytes)
system.iobus.pkt_count_system.ruby.l1_cntrl1.sequencer.mem-master-port::system.ruby.l1_cntrl3.sequencer.pio-slave-port           18                       # Packet count per connected master and slave (bytes)
system.iobus.pkt_count_system.ruby.l1_cntrl1.sequencer.mem-master-port::total         4478                       # Packet count per connected master and slave (bytes)
system.iobus.pkt_count_system.ruby.l1_cntrl2.sequencer.mem-master-port::system.ruby.l1_cntrl0.sequencer.pio-slave-port           14                       # Packet count per connected master and slave (bytes)
system.iobus.pkt_count_system.ruby.l1_cntrl2.sequencer.mem-master-port::system.ruby.l1_cntrl1.sequencer.pio-slave-port           14                       # Packet count per connected master and slave (bytes)
system.iobus.pkt_count_system.ruby.l1_cntrl2.sequencer.mem-master-port::system.ruby.l1_cntrl2.sequencer.pio-slave-port         3488                       # Packet count per connected master and slave (bytes)
system.iobus.pkt_count_system.ruby.l1_cntrl2.sequencer.mem-master-port::system.ruby.l1_cntrl3.sequencer.pio-slave-port           20                       # Packet count per connected master and slave (bytes)
system.iobus.pkt_count_system.ruby.l1_cntrl2.sequencer.mem-master-port::total         3536                       # Packet count per connected master and slave (bytes)
system.iobus.pkt_count_system.ruby.l1_cntrl3.sequencer.mem-master-port::system.pc.south_bridge.ide.pio          102                       # Packet count per connected master and slave (bytes)
system.iobus.pkt_count_system.ruby.l1_cntrl3.sequencer.mem-master-port::system.ruby.l1_cntrl0.sequencer.pio-slave-port           18                       # Packet count per connected master and slave (bytes)
system.iobus.pkt_count_system.ruby.l1_cntrl3.sequencer.mem-master-port::system.ruby.l1_cntrl1.sequencer.pio-slave-port           18                       # Packet count per connected master and slave (bytes)
system.iobus.pkt_count_system.ruby.l1_cntrl3.sequencer.mem-master-port::system.ruby.l1_cntrl2.sequencer.pio-slave-port           16                       # Packet count per connected master and slave (bytes)
system.iobus.pkt_count_system.ruby.l1_cntrl3.sequencer.mem-master-port::system.ruby.l1_cntrl3.sequencer.pio-slave-port         3524                       # Packet count per connected master and slave (bytes)
system.iobus.pkt_count_system.ruby.l1_cntrl3.sequencer.mem-master-port::total         3678                       # Packet count per connected master and slave (bytes)
system.iobus.pkt_count::total                   15666                       # Packet count per connected master and slave (bytes)
system.iobus.pkt_size_system.pc.south_bridge.io_apic.int_master::system.ruby.l1_cntrl1.sequencer.pio-slave-port          424                       # Cumulative packet size per connected master and slave (bytes)
system.iobus.pkt_size_system.pc.south_bridge.io_apic.int_master::total          424                       # Cumulative packet size per connected master and slave (bytes)
system.iobus.pkt_size_system.ruby.l1_cntrl0.sequencer.mem-master-port::system.ruby.l1_cntrl0.sequencer.pio-slave-port         7180                       # Cumulative packet size per connected master and slave (bytes)
system.iobus.pkt_size_system.ruby.l1_cntrl0.sequencer.mem-master-port::system.ruby.l1_cntrl1.sequencer.pio-slave-port          116                       # Cumulative packet size per connected master and slave (bytes)
system.iobus.pkt_size_system.ruby.l1_cntrl0.sequencer.mem-master-port::system.ruby.l1_cntrl2.sequencer.pio-slave-port          116                       # Cumulative packet size per connected master and slave (bytes)
system.iobus.pkt_size_system.ruby.l1_cntrl0.sequencer.mem-master-port::system.ruby.l1_cntrl3.sequencer.pio-slave-port          112                       # Cumulative packet size per connected master and slave (bytes)
system.iobus.pkt_size_system.ruby.l1_cntrl0.sequencer.mem-master-port::total         7524                       # Cumulative packet size per connected master and slave (bytes)
system.iobus.pkt_size_system.ruby.l1_cntrl1.sequencer.mem-master-port::system.pc.south_bridge.ide.pio           44                       # Cumulative packet size per connected master and slave (bytes)
system.iobus.pkt_size_system.ruby.l1_cntrl1.sequencer.mem-master-port::system.pc.com_1.pio          415                       # Cumulative packet size per connected master and slave (bytes)
system.iobus.pkt_size_system.ruby.l1_cntrl1.sequencer.mem-master-port::system.ruby.l1_cntrl0.sequencer.pio-slave-port           24                       # Cumulative packet size per connected master and slave (bytes)
system.iobus.pkt_size_system.ruby.l1_cntrl1.sequencer.mem-master-port::system.ruby.l1_cntrl1.sequencer.pio-slave-port         7048                       # Cumulative packet size per connected master and slave (bytes)
system.iobus.pkt_size_system.ruby.l1_cntrl1.sequencer.mem-master-port::system.ruby.l1_cntrl2.sequencer.pio-slave-port           24                       # Cumulative packet size per connected master and slave (bytes)
system.iobus.pkt_size_system.ruby.l1_cntrl1.sequencer.mem-master-port::system.ruby.l1_cntrl3.sequencer.pio-slave-port           36                       # Cumulative packet size per connected master and slave (bytes)
system.iobus.pkt_size_system.ruby.l1_cntrl1.sequencer.mem-master-port::total         7591                       # Cumulative packet size per connected master and slave (bytes)
system.iobus.pkt_size_system.ruby.l1_cntrl2.sequencer.mem-master-port::system.ruby.l1_cntrl0.sequencer.pio-slave-port           28                       # Cumulative packet size per connected master and slave (bytes)
system.iobus.pkt_size_system.ruby.l1_cntrl2.sequencer.mem-master-port::system.ruby.l1_cntrl1.sequencer.pio-slave-port           28                       # Cumulative packet size per connected master and slave (bytes)
system.iobus.pkt_size_system.ruby.l1_cntrl2.sequencer.mem-master-port::system.ruby.l1_cntrl2.sequencer.pio-slave-port         6976                       # Cumulative packet size per connected master and slave (bytes)
system.iobus.pkt_size_system.ruby.l1_cntrl2.sequencer.mem-master-port::system.ruby.l1_cntrl3.sequencer.pio-slave-port           40                       # Cumulative packet size per connected master and slave (bytes)
system.iobus.pkt_size_system.ruby.l1_cntrl2.sequencer.mem-master-port::total         7072                       # Cumulative packet size per connected master and slave (bytes)
system.iobus.pkt_size_system.ruby.l1_cntrl3.sequencer.mem-master-port::system.pc.south_bridge.ide.pio           60                       # Cumulative packet size per connected master and slave (bytes)
system.iobus.pkt_size_system.ruby.l1_cntrl3.sequencer.mem-master-port::system.ruby.l1_cntrl0.sequencer.pio-slave-port           36                       # Cumulative packet size per connected master and slave (bytes)
system.iobus.pkt_size_system.ruby.l1_cntrl3.sequencer.mem-master-port::system.ruby.l1_cntrl1.sequencer.pio-slave-port           36                       # Cumulative packet size per connected master and slave (bytes)
system.iobus.pkt_size_system.ruby.l1_cntrl3.sequencer.mem-master-port::system.ruby.l1_cntrl2.sequencer.pio-slave-port           32                       # Cumulative packet size per connected master and slave (bytes)
system.iobus.pkt_size_system.ruby.l1_cntrl3.sequencer.mem-master-port::system.ruby.l1_cntrl3.sequencer.pio-slave-port         7048                       # Cumulative packet size per connected master and slave (bytes)
system.iobus.pkt_size_system.ruby.l1_cntrl3.sequencer.mem-master-port::total         7212                       # Cumulative packet size per connected master and slave (bytes)
system.iobus.pkt_size::total                    29823                       # Cumulative packet size per connected master and slave (bytes)
system.iobus.reqLayer2.occupancy               164500                       # Layer occupancy (ticks)
system.iobus.reqLayer2.utilization                0.0                       # Layer utilization (%)
system.iobus.power_state.pwrStateResidencyTicks::UNDEFINED 102742796095001                       # Cumulative time (in ticks) in various power states
system.iobus.reqLayer19.occupancy             4659918                       # Layer occupancy (ticks)
system.iobus.reqLayer19.utilization               0.0                       # Layer utilization (%)
system.iobus.reqLayer17.occupancy             4725872                       # Layer occupancy (ticks)
system.iobus.reqLayer17.utilization               0.0                       # Layer utilization (%)
system.iobus.reqLayer12.occupancy              556000                       # Layer occupancy (ticks)
system.iobus.reqLayer12.utilization               0.0                       # Layer utilization (%)
system.iobus.reqLayer18.occupancy             4946439                       # Layer occupancy (ticks)
system.iobus.reqLayer18.utilization               0.0                       # Layer utilization (%)
system.iobus.respLayer9.occupancy             2743000                       # Layer occupancy (ticks)
system.iobus.respLayer9.utilization               0.0                       # Layer utilization (%)
system.iobus.respLayer5.occupancy             3452000                       # Layer occupancy (ticks)
system.iobus.respLayer5.utilization               0.0                       # Layer utilization (%)
system.iobus.respLayer7.occupancy             2647000                       # Layer occupancy (ticks)
system.iobus.respLayer7.utilization               0.0                       # Layer utilization (%)
system.iobus.respLayer0.occupancy              157996                       # Layer occupancy (ticks)
system.iobus.respLayer0.utilization               0.0                       # Layer utilization (%)
system.iobus.respLayer3.occupancy             2806500                       # Layer occupancy (ticks)
system.iobus.respLayer3.utilization               0.0                       # Layer utilization (%)
system.iobus.reqLayer20.occupancy             4904789                       # Layer occupancy (ticks)
system.iobus.reqLayer20.utilization               0.0                       # Layer utilization (%)

---------- End Simulation Statistics   ----------
m.iobus.pkt_size_system.ruby.l1_cntrl2.sequencer.mem-master-port::system.pc.south_bridge.ide.pio           20                       # Cumulative packet size per connected master and slave (bytes)
system.iobus.pkt_size_system.ruby.l1_cntrl2.sequencer.mem-master-port::system.ruby.l1_cntrl0.sequencer.pio-slave-port           44                       # Cumulative packet size per connected master and slave (bytes)
system.iobus.pkt_size_system.ruby.l1_cntrl2.sequencer.mem-master-port::system.ruby.l1_cntrl1.sequencer.pio-slave-port           40                       # Cumulative packet size per connected master and slave (bytes)
system.iobus.pkt_size_system.ruby.l1_cntrl2.sequencer.mem-master-port::system.ruby.l1_cntrl2.sequencer.pio-slave-port         7232                       # Cumulative packet size per connected master and slave (bytes)
system.iobus.pkt_size_system.ruby.l1_cntrl2.sequencer.mem-master-port::system.ruby.l1_cntrl3.sequencer.pio-slave-port           32                       # Cumulative packet size per connected master and slave (bytes)
system.iobus.pkt_size_system.ruby.l1_cntrl2.sequencer.mem-master-port::total         7368                       # Cumulative packet size per connected master and slave (bytes)
system.iobus.pkt_size_system.ruby.l1_cntrl3.sequencer.mem-master-port::system.ruby.l1_cntrl0.sequencer.pio-slave-port           44                       # Cumulative packet size per connected master and slave (bytes)
system.iobus.pkt_size_system.ruby.l1_cntrl3.sequencer.mem-master-port::system.ruby.l1_cntrl1.sequencer.pio-slave-port           32                       # Cumulative packet size per connected master and slave (bytes)
system.iobus.pkt_size_system.ruby.l1_cntrl3.sequencer.mem-master-port::system.ruby.l1_cntrl2.sequencer.pio-slave-port           32                       # Cumulative packet size per connected master and slave (bytes)
system.iobus.pkt_size_system.ruby.l1_cntrl3.sequencer.mem-master-port::system.ruby.l1_cntrl3.sequencer.pio-slave-port         7188                       # Cumulative packet size per connected master and slave (bytes)
system.iobus.pkt_size_system.ruby.l1_cntrl3.sequencer.mem-master-port::total         7296                       # Cumulative packet size per connected master and slave (bytes)
system.iobus.pkt_size::total                    30336                       # Cumulative packet size per connected master and slave (bytes)
system.iobus.reqLayer2.occupancy               170000                       # Layer occupancy (ticks)
system.iobus.reqLayer2.utilization                0.0                       # Layer utilization (%)
system.iobus.power_state.pwrStateResidencyTicks::UNDEFINED 101999835719501                       # Cumulative time (in ticks) in various power states
system.iobus.reqLayer19.occupancy             5032751                       # Layer occupancy (ticks)
system.iobus.reqLayer19.utilization               0.0                       # Layer utilization (%)
system.iobus.reqLayer17.occupancy             4640324                       # Layer occupancy (ticks)
system.iobus.reqLayer17.utilization               0.0                       # Layer utilization (%)
system.iobus.reqLayer12.occupancy              330500                       # Layer occupancy (ticks)
system.iobus.reqLayer12.utilization               0.0                       # Layer utilization (%)
system.iobus.reqLayer18.occupancy             4774376                       # Layer occupancy (ticks)
system.iobus.reqLayer18.utilization               0.0                       # Layer utilization (%)
system.iobus.respLayer9.occupancy             2737000                       # Layer occupancy (ticks)
system.iobus.respLayer9.utilization               0.0                       # Layer utilization (%)
system.iobus.respLayer5.occupancy             3234000                       # Layer occupancy (ticks)
system.iobus.respLayer5.utilization               0.0                       # Layer utilization (%)
system.iobus.respLayer7.occupancy             2781500                       # Layer occupancy (ticks)
system.iobus.respLayer7.utilization               0.0                       # Layer utilization (%)
system.iobus.respLayer0.occupancy              102496                       # Layer occupancy (ticks)
system.iobus.respLayer0.utilization               0.0                       # Layer utilization (%)
system.iobus.respLayer3.occupancy             2950000                       # Layer occupancy (ticks)
system.iobus.respLayer3.utilization               0.0                       # Layer utilization (%)
system.iobus.reqLayer20.occupancy             4625336                       # Layer occupancy (ticks)
system.iobus.reqLayer20.utilization               0.0                       # Layer utilization (%)

---------- End Simulation Statistics   ----------
obus.respLayer0.occupancy              662705                       # Layer occupancy (ticks)
system.iobus.respLayer0.utilization               0.0                       # Layer utilization (%)
system.iobus.respLayer3.occupancy             9057000                       # Layer occupancy (ticks)
system.iobus.respLayer3.utilization               0.0                       # Layer utilization (%)
system.iobus.reqLayer20.occupancy             4709872                       # Layer occupancy (ticks)
system.iobus.reqLayer20.utilization               0.0                       # Layer utilization (%)

---------- End Simulation Statistics   ----------
