
---------- Begin Simulation Statistics ----------
final_tick                               99275094675001                       # Number of ticks from beginning of simulation (restored from checkpoints and never reset)
host_inst_rate                                 879990                       # Simulator instruction rate (inst/s)
host_mem_usage                                1537992                       # Number of bytes of host memory used
host_op_rate                                  1068261                       # Simulator op (including micro ops) rate (op/s)
host_seconds                                  7560.20                       # Real time elapsed on the host
host_tick_rate                              125556227                       # Simulator tick rate (ticks/s)
sim_freq                                 1000000000000                       # Frequency of simulated ticks
sim_insts                                  6652900196                       # Number of instructions simulated
sim_ops                                    8076266650                       # Number of ops (including micro ops) simulated
sim_seconds                                  0.949230                       # Number of seconds simulated
sim_ticks                                949230131501                       # Number of ticks simulated
system.cpu0.committedInsts                          0                       # Number of instructions committed
system.cpu0.dtb.rdAccesses                          0                       # TLB accesses on read requests
system.cpu0.dtb.rdMisses                            0                       # TLB misses on read requests
system.cpu0.dtb.wrAccesses                          0                       # TLB accesses on write requests
system.cpu0.dtb.wrMisses                            0                       # TLB misses on write requests
system.cpu0.itb.rdAccesses                          0                       # TLB accesses on read requests
system.cpu0.itb.rdMisses                            0                       # TLB misses on read requests
system.cpu0.itb.wrAccesses                          0                       # TLB accesses on write requests
system.cpu0.itb.wrMisses                            0                       # TLB misses on write requests
system.cpu0.kern.inst.arm                           0                       # number of arm instructions executed
system.cpu0.kern.inst.quiesce                       0                       # number of quiesce instructions executed
system.cpu0.numCoalescedMMIO                        0                       # number of coalesced memory mapped IO requests
system.cpu0.numCycles                               0                       # number of cpu cycles simulated
system.cpu0.numExitSignal                           0                       # exits due to signal delivery
system.cpu0.numHalt                                 0                       # number of VM exits due to wait for interrupt instructions
system.cpu0.numHypercalls                           0                       # number of hypercalls
system.cpu0.numIO                                   0                       # number of VM exits due to legacy IO
system.cpu0.numInterrupts                           0                       # number of interrupts delivered
system.cpu0.numMMIO                                 0                       # number of VM exits due to memory mapped IO
system.cpu0.numVMExits                              0                       # total number of KVM exits
system.cpu0.numVMHalfEntries                        0                       # number of KVM entries to finalize pending operations
system.cpu0.numWorkItemsCompleted                   0                       # number of work items this cpu completed
system.cpu0.numWorkItemsStarted                     0                       # number of work items this cpu started
system.cpu1.committedInsts                          0                       # Number of instructions committed
system.cpu1.dtb.rdAccesses                          0                       # TLB accesses on read requests
system.cpu1.dtb.rdMisses                            0                       # TLB misses on read requests
system.cpu1.dtb.wrAccesses                          0                       # TLB accesses on write requests
system.cpu1.dtb.wrMisses                            0                       # TLB misses on write requests
system.cpu1.itb.rdAccesses                          0                       # TLB accesses on read requests
system.cpu1.itb.rdMisses                            0                       # TLB misses on read requests
system.cpu1.itb.wrAccesses                          0                       # TLB accesses on write requests
system.cpu1.itb.wrMisses                            0                       # TLB misses on write requests
system.cpu1.kern.inst.arm                           0                       # number of arm instructions executed
system.cpu1.kern.inst.quiesce                       0                       # number of quiesce instructions executed
system.cpu1.numCoalescedMMIO                        0                       # number of coalesced memory mapped IO requests
system.cpu1.numCycles                               0                       # number of cpu cycles simulated
system.cpu1.numExitSignal                           0                       # exits due to signal delivery
system.cpu1.numHalt                                 0                       # number of VM exits due to wait for interrupt instructions
system.cpu1.numHypercalls                           0                       # number of hypercalls
system.cpu1.numIO                                   0                       # number of VM exits due to legacy IO
system.cpu1.numInterrupts                           0                       # number of interrupts delivered
system.cpu1.numMMIO                                 0                       # number of VM exits due to memory mapped IO
system.cpu1.numVMExits                              0                       # total number of KVM exits
system.cpu1.numVMHalfEntries                        0                       # number of KVM entries to finalize pending operations
system.cpu1.numWorkItemsCompleted                   0                       # number of work items this cpu completed
system.cpu1.numWorkItemsStarted                     0                       # number of work items this cpu started
system.cpu2.committedInsts                          0                       # Number of instructions committed
system.cpu2.dtb.rdAccesses                          0                       # TLB accesses on read requests
system.cpu2.dtb.rdMisses                            0                       # TLB misses on read requests
system.cpu2.dtb.wrAccesses                          0                       # TLB accesses on write requests
system.cpu2.dtb.wrMisses                            0                       # TLB misses on write requests
system.cpu2.itb.rdAccesses                          0                       # TLB accesses on read requests
system.cpu2.itb.rdMisses                            0                       # TLB misses on read requests
system.cpu2.itb.wrAccesses                          0                       # TLB accesses on write requests
system.cpu2.itb.wrMisses                            0                       # TLB misses on write requests
system.cpu2.kern.inst.arm                           0                       # number of arm instructions executed
system.cpu2.kern.inst.quiesce                       0                       # number of quiesce instructions executed
system.cpu2.numCoalescedMMIO                        0                       # number of coalesced memory mapped IO requests
system.cpu2.numCycles                               0                       # number of cpu cycles simulated
system.cpu2.numExitSignal                           0                       # exits due to signal delivery
system.cpu2.numHalt                                 0                       # number of VM exits due to wait for interrupt instructions
system.cpu2.numHypercalls                           0                       # number of hypercalls
system.cpu2.numIO                                   0                       # number of VM exits due to legacy IO
system.cpu2.numInterrupts                           0                       # number of interrupts delivered
system.cpu2.numMMIO                                 0                       # number of VM exits due to memory mapped IO
system.cpu2.numVMExits                              0                       # total number of KVM exits
system.cpu2.numVMHalfEntries                        0                       # number of KVM entries to finalize pending operations
system.cpu2.numWorkItemsCompleted                   0                       # number of work items this cpu completed
system.cpu2.numWorkItemsStarted                     0                       # number of work items this cpu started
system.cpu3.committedInsts                          0                       # Number of instructions committed
system.cpu3.dtb.rdAccesses                          0                       # TLB accesses on read requests
system.cpu3.dtb.rdMisses                            0                       # TLB misses on read requests
system.cpu3.dtb.wrAccesses                          0                       # TLB accesses on write requests
system.cpu3.dtb.wrMisses                            0                       # TLB misses on write requests
system.cpu3.itb.rdAccesses                          0                       # TLB accesses on read requests
system.cpu3.itb.rdMisses                            0                       # TLB misses on read requests
system.cpu3.itb.wrAccesses                          0                       # TLB accesses on write requests
system.cpu3.itb.wrMisses                            0                       # TLB misses on write requests
system.cpu3.kern.inst.arm                           0                       # number of arm instructions executed
system.cpu3.kern.inst.quiesce                       0                       # number of quiesce instructions executed
system.cpu3.numCoalescedMMIO                        0                       # number of coalesced memory mapped IO requests
system.cpu3.numCycles                               0                       # number of cpu cycles simulated
system.cpu3.numExitSignal                           0                       # exits due to signal delivery
system.cpu3.numHalt                                 0                       # number of VM exits due to wait for interrupt instructions
system.cpu3.numHypercalls                           0                       # number of hypercalls
system.cpu3.numIO                                   0                       # number of VM exits due to legacy IO
system.cpu3.numInterrupts                           0                       # number of interrupts delivered
system.cpu3.numMMIO                                 0                       # number of VM exits due to memory mapped IO
system.cpu3.numVMExits                              0                       # total number of KVM exits
system.cpu3.numVMHalfEntries                        0                       # number of KVM entries to finalize pending operations
system.cpu3.numWorkItemsCompleted                   0                       # number of work items this cpu completed
system.cpu3.numWorkItemsStarted                     0                       # number of work items this cpu started
system.pc.south_bridge.ide.disks.dma_read_bytes            0                       # Number of bytes transfered via DMA reads (not PRD).
system.pc.south_bridge.ide.disks.dma_read_full_pages            0                       # Number of full page size DMA reads (not PRD).
system.pc.south_bridge.ide.disks.dma_read_txs            0                       # Number of DMA read transactions (not PRD).
system.pc.south_bridge.ide.disks.dma_write_bytes       200704                       # Number of bytes transfered via DMA writes.
system.pc.south_bridge.ide.disks.dma_write_full_pages           49                       # Number of full page size DMA writes.
system.pc.south_bridge.ide.disks.dma_write_txs           49                       # Number of DMA write transactions.
system.ruby.DMA_Controller.I.allocI_load |           6    100.00%    100.00% |           0      0.00%    100.00%
system.ruby.DMA_Controller.I.allocI_load::total            6                      
system.ruby.DMA_Controller.I.allocI_store |        3136    100.00%    100.00% |           0      0.00%    100.00%
system.ruby.DMA_Controller.I.allocI_store::total         3136                      
system.ruby.DMA_Controller.I.deallocfwdfrom_in |        2118    100.00%    100.00% |           0      0.00%    100.00%
system.ruby.DMA_Controller.I.deallocfwdfrom_in::total         2118                      
system.ruby.DMA_Controller.M.allocTBE    |        2116    100.00%    100.00% |           0      0.00%    100.00%
system.ruby.DMA_Controller.M.allocTBE::total         2116                      
system.ruby.DMA_Controller.M.externalstoreMrespfrom_in |        3136    100.00%    100.00% |           0      0.00%    100.00%
system.ruby.DMA_Controller.M.externalstoreMrespfrom_in::total         3136                      
system.ruby.DMA_Controller.M_evict.Stallmandatory_in |       31565    100.00%    100.00% |           0      0.00%    100.00%
system.ruby.DMA_Controller.M_evict.Stallmandatory_in::total        31565                      
system.ruby.DMA_Controller.S.SloadSEvent |          23    100.00%    100.00% |           0      0.00%    100.00%
system.ruby.DMA_Controller.S.SloadSEvent::total           23                      
system.ruby.DMA_Controller.S.allocTBE    |           6    100.00%    100.00% |           0      0.00%    100.00%
system.ruby.DMA_Controller.S.allocTBE::total            6                      
system.ruby.DMA_Controller.S.externalloadSrespfrom_in |           6    100.00%    100.00% |           0      0.00%    100.00%
system.ruby.DMA_Controller.S.externalloadSrespfrom_in::total            6                      
system.ruby.DMA_Controller.S_evict.Stallmandatory_in |           2    100.00%    100.00% |           0      0.00%    100.00%
system.ruby.DMA_Controller.S_evict.Stallmandatory_in::total            2                      
system.ruby.DMA_Controller.SloadSEvent   |          23    100.00%    100.00% |           0      0.00%    100.00%
system.ruby.DMA_Controller.SloadSEvent::total           23                      
system.ruby.DMA_Controller.Stallmandatory_in |       31567    100.00%    100.00% |           0      0.00%    100.00%
system.ruby.DMA_Controller.Stallmandatory_in::total        31567                      
system.ruby.DMA_Controller.allocI_load   |           6    100.00%    100.00% |           0      0.00%    100.00%
system.ruby.DMA_Controller.allocI_load::total            6                      
system.ruby.DMA_Controller.allocI_store  |        3136    100.00%    100.00% |           0      0.00%    100.00%
system.ruby.DMA_Controller.allocI_store::total         3136                      
system.ruby.DMA_Controller.allocTBE      |        2122    100.00%    100.00% |           0      0.00%    100.00%
system.ruby.DMA_Controller.allocTBE::total         2122                      
system.ruby.DMA_Controller.deallocfwdfrom_in |        2118    100.00%    100.00% |           0      0.00%    100.00%
system.ruby.DMA_Controller.deallocfwdfrom_in::total         2118                      
system.ruby.DMA_Controller.externalloadSrespfrom_in |           6    100.00%    100.00% |           0      0.00%    100.00%
system.ruby.DMA_Controller.externalloadSrespfrom_in::total            6                      
system.ruby.DMA_Controller.externalstoreMrespfrom_in |        3136    100.00%    100.00% |           0      0.00%    100.00%
system.ruby.DMA_Controller.externalstoreMrespfrom_in::total         3136                      
system.ruby.Directory_Controller.I.allocTBE |     1247818     25.14%     25.14% |     1264520     25.48%     50.62% |     1248574     25.16%     75.77% |     1202607     24.23%    100.00%
system.ruby.Directory_Controller.I.allocTBE::total      4963519                      
system.ruby.Directory_Controller.I.deallocTBE |     1246945     25.14%     25.14% |     1263646     25.48%     50.62% |     1247696     25.16%     75.77% |     1201712     24.23%    100.00%
system.ruby.Directory_Controller.I.deallocTBE::total      4959999                      
system.ruby.Directory_Controller.I_GetSL1C1C1_0.Stallreqto_in |          63     16.03%     16.03% |          72     18.32%     34.35% |         126     32.06%     66.41% |         132     33.59%    100.00%
system.ruby.Directory_Controller.I_GetSL1C1C1_0.Stallreqto_in::total          393                      
system.ruby.Directory_Controller.M.allocTBE |      832981     25.06%     25.06% |      829381     24.95%     50.02% |      831682     25.02%     75.04% |      829650     24.96%    100.00%
system.ruby.Directory_Controller.M.allocTBE::total      3323694                      
system.ruby.Directory_Controller.M.deallocTBE |      833418     25.06%     25.06% |      829808     24.95%     50.02% |      832097     25.02%     75.04% |      830089     24.96%    100.00%
system.ruby.Directory_Controller.M.deallocTBE::total      3325412                      
system.ruby.Directory_Controller.M_GetM.Progress |          50     19.16%     19.16% |          67     25.67%     44.83% |          31     11.88%     56.70% |         113     43.30%    100.00%
system.ruby.Directory_Controller.M_GetM.Progress::total          261                      
system.ruby.Directory_Controller.M_GetM.Stallreqto_in |           0      0.00%      0.00% |           0      0.00%      0.00% |           0      0.00%      0.00% |           3    100.00%    100.00%
system.ruby.Directory_Controller.M_GetM.Stallreqto_in::total            3                      
system.ruby.Directory_Controller.M_GetS.Progress |         523     16.51%     16.51% |         972     30.69%     47.21% |         933     29.46%     76.67% |         739     23.33%    100.00%
system.ruby.Directory_Controller.M_GetS.Progress::total         3167                      
system.ruby.Directory_Controller.M_GetS.Stallreqto_in |           0      0.00%      0.00% |           0      0.00%      0.00% |           0      0.00%      0.00% |           3    100.00%    100.00%
system.ruby.Directory_Controller.M_GetS.Stallreqto_in::total            3                      
system.ruby.Directory_Controller.M_GetS_WBL1C1C1_0.Stallreqto_in |           1      3.33%      3.33% |           1      3.33%      6.67% |          12     40.00%     46.67% |          16     53.33%    100.00%
system.ruby.Directory_Controller.M_GetS_WBL1C1C1_0.Stallreqto_in::total           30                      
system.ruby.Directory_Controller.Progress |         693     12.97%     12.97% |        1886     35.30%     48.27% |        1632     30.54%     78.81% |        1132     21.19%    100.00%
system.ruby.Directory_Controller.Progress::total         5343                      
system.ruby.Directory_Controller.S.allocTBE |     2584550     24.87%     24.87% |     2509657     24.15%     49.03% |     2760448     26.57%     75.59% |     2536154     24.41%    100.00%
system.ruby.Directory_Controller.S.allocTBE::total     10390809                      
system.ruby.Directory_Controller.S.deallocTBE |     2584986     24.87%     24.87% |     2510104     24.15%     49.03% |     2760911     26.57%     75.59% |     2536610     24.41%    100.00%
system.ruby.Directory_Controller.S.deallocTBE::total     10392611                      
system.ruby.Directory_Controller.S_GetM.Progress |         120      6.27%      6.27% |         847     44.23%     50.50% |         668     34.88%     85.38% |         280     14.62%    100.00%
system.ruby.Directory_Controller.S_GetM.Progress::total         1915                      
system.ruby.Directory_Controller.S_GetM.Stallreqto_in |           2     28.57%     28.57% |           0      0.00%     28.57% |           1     14.29%     42.86% |           4     57.14%    100.00%
system.ruby.Directory_Controller.S_GetM.Stallreqto_in::total            7                      
system.ruby.Directory_Controller.S_GetM.allocTBE |         906     22.68%     22.68% |        1063     26.61%     49.29% |        1042     26.08%     75.37% |         984     24.63%    100.00%
system.ruby.Directory_Controller.S_GetM.allocTBE::total         3995                      
system.ruby.Directory_Controller.S_GetM.deallocTBE |         906     22.68%     22.68% |        1063     26.61%     49.29% |        1042     26.08%     75.37% |         984     24.63%    100.00%
system.ruby.Directory_Controller.S_GetM.deallocTBE::total         3995                      
system.ruby.Directory_Controller.S_GetSL1C1C1_0.Stallreqto_in |         606     19.27%     19.27% |         494     15.71%     34.98% |         959     30.49%     65.47% |        1086     34.53%    100.00%
system.ruby.Directory_Controller.S_GetSL1C1C1_0.Stallreqto_in::total         3145                      
system.ruby.Directory_Controller.Stallreqto_in |         672     18.77%     18.77% |         567     15.83%     34.60% |        1098     30.66%     65.26% |        1244     34.74%    100.00%
system.ruby.Directory_Controller.Stallreqto_in::total         3581                      
system.ruby.Directory_Controller.allocTBE |     4666255     24.98%     24.98% |     4604621     24.65%     49.62% |     4841746     25.92%     75.54% |     4569395     24.46%    100.00%
system.ruby.Directory_Controller.allocTBE::total     18682017                      
system.ruby.Directory_Controller.deallocTBE |     4666255     24.98%     24.98% |     4604621     24.65%     49.62% |     4841746     25.92%     75.54% |     4569395     24.46%    100.00%
system.ruby.Directory_Controller.deallocTBE::total     18682017                      
system.ruby.IFETCH.hit_latency_hist_seqr::bucket_size            1                      
system.ruby.IFETCH.hit_latency_hist_seqr::max_bucket            9                      
system.ruby.IFETCH.hit_latency_hist_seqr::samples   2557773227                      
system.ruby.IFETCH.hit_latency_hist_seqr |  2557773227    100.00%    100.00% |           0      0.00%    100.00% |           0      0.00%    100.00% |           0      0.00%    100.00% |           0      0.00%    100.00% |           0      0.00%    100.00% |           0      0.00%    100.00% |           0      0.00%    100.00% |           0      0.00%    100.00% |           0      0.00%    100.00%
system.ruby.IFETCH.hit_latency_hist_seqr::total   2557773227                      
system.ruby.IFETCH.latency_hist_seqr::bucket_size            1                      
system.ruby.IFETCH.latency_hist_seqr::max_bucket            9                      
system.ruby.IFETCH.latency_hist_seqr::samples   2560414072                      
system.ruby.IFETCH.latency_hist_seqr     |  2560414072    100.00%    100.00% |           0      0.00%    100.00% |           0      0.00%    100.00% |           0      0.00%    100.00% |           0      0.00%    100.00% |           0      0.00%    100.00% |           0      0.00%    100.00% |           0      0.00%    100.00% |           0      0.00%    100.00% |           0      0.00%    100.00%
system.ruby.IFETCH.latency_hist_seqr::total   2560414072                      
system.ruby.IFETCH.miss_latency_hist_seqr::bucket_size            1                      
system.ruby.IFETCH.miss_latency_hist_seqr::max_bucket            9                      
system.ruby.IFETCH.miss_latency_hist_seqr::samples      2640845                      
system.ruby.IFETCH.miss_latency_hist_seqr |     2640845    100.00%    100.00% |           0      0.00%    100.00% |           0      0.00%    100.00% |           0      0.00%    100.00% |           0      0.00%    100.00% |           0      0.00%    100.00% |           0      0.00%    100.00% |           0      0.00%    100.00% |           0      0.00%    100.00% |           0      0.00%    100.00%
system.ruby.IFETCH.miss_latency_hist_seqr::total      2640845                      
system.ruby.L1Cache_Controller.I.allocI_load |     1635069     25.96%     25.96% |     1494340     23.73%     49.70% |     1534964     24.38%     74.07% |     1632845     25.93%    100.00%
system.ruby.L1Cache_Controller.I.allocI_load::total      6297218                      
system.ruby.L1Cache_Controller.I.allocI_store |      863360     31.21%     31.21% |      555880     20.10%     51.31% |      575603     20.81%     72.11% |      771401     27.89%    100.00%
system.ruby.L1Cache_Controller.I.allocI_store::total      2766244                      
system.ruby.L1Cache_Controller.I.deallocfwdfrom_in |     2497406     27.57%     27.57% |     2049220     22.62%     50.19% |     2109576     23.29%     73.47% |     2403234     26.53%    100.00%
system.ruby.L1Cache_Controller.I.deallocfwdfrom_in::total      9059436                      
system.ruby.L1Cache_Controller.I_store.Progress |        1531     96.65%     96.65% |          12      0.76%     97.41% |          16      1.01%     98.42% |          25      1.58%    100.00%
system.ruby.L1Cache_Controller.I_store.Progress::total         1584                      
system.ruby.L1Cache_Controller.I_store.Stallfwdfrom_in |           2     33.33%     33.33% |           2     33.33%     66.67% |           1     16.67%     83.33% |           1     16.67%    100.00%
system.ruby.L1Cache_Controller.I_store.Stallfwdfrom_in::total            6                      
system.ruby.L1Cache_Controller.M.MloadMEvent |    57243137     25.20%     25.20% |    57794107     25.44%     50.64% |    56278185     24.77%     75.41% |    55865497     24.59%    100.00%
system.ruby.L1Cache_Controller.M.MloadMEvent::total    227180926                      
system.ruby.L1Cache_Controller.M.MstoreMEvent |    38672303     24.93%     24.93% |    38770071     24.99%     49.92% |    38952251     25.11%     75.03% |    38726161     24.97%    100.00%
system.ruby.L1Cache_Controller.M.MstoreMEvent::total    155120786                      
system.ruby.L1Cache_Controller.M.allocTBE |     1022291     30.78%     30.78% |      661506     19.92%     50.69% |      716109     21.56%     72.25% |      921672     27.75%    100.00%
system.ruby.L1Cache_Controller.M.allocTBE::total      3321578                      
system.ruby.L1Cache_Controller.M.externalstoreMrespfrom_in |     1022533     30.78%     30.78% |      661650     19.92%     50.69% |      716257     21.56%     72.25% |      921836     27.75%    100.00%
system.ruby.L1Cache_Controller.M.externalstoreMrespfrom_in::total      3322276                      
system.ruby.L1Cache_Controller.M_evict.Stallmandatory_in |         161     41.39%     41.39% |          53     13.62%     55.01% |          83     21.34%     76.35% |          92     23.65%    100.00%
system.ruby.L1Cache_Controller.M_evict.Stallmandatory_in::total          389                      
system.ruby.L1Cache_Controller.MloadMEvent |    57243137     25.20%     25.20% |    57794107     25.44%     50.64% |    56278185     24.77%     75.41% |    55865497     24.59%    100.00%
system.ruby.L1Cache_Controller.MloadMEvent::total    227180926                      
system.ruby.L1Cache_Controller.MstoreMEvent |    38672303     24.93%     24.93% |    38770071     24.99%     49.92% |    38952251     25.11%     75.03% |    38726161     24.97%    100.00%
system.ruby.L1Cache_Controller.MstoreMEvent::total    155120786                      
system.ruby.L1Cache_Controller.Progress  |      164495     29.27%     29.27% |      106013     18.87%     48.14% |      140816     25.06%     73.20% |      150621     26.80%    100.00%
system.ruby.L1Cache_Controller.Progress::total       561945                      
system.ruby.L1Cache_Controller.S.SloadSEvent |   701049723     24.94%     24.94% |   700040755     24.91%     49.85% |   704788264     25.07%     74.92% |   704888181     25.08%    100.00%
system.ruby.L1Cache_Controller.S.SloadSEvent::total   2810766923                      
system.ruby.L1Cache_Controller.S.allocTBE |     1636901     25.99%     25.99% |     1493714     23.72%     49.72% |     1534293     24.37%     74.08% |     1632149     25.92%    100.00%
system.ruby.L1Cache_Controller.S.allocTBE::total      6297057                      
system.ruby.L1Cache_Controller.S.deallocTBE |        2613     82.51%     82.51% |         230      7.26%     89.77% |         172      5.43%     95.20% |         152      4.80%    100.00%
system.ruby.L1Cache_Controller.S.deallocTBE::total         3167                      
system.ruby.L1Cache_Controller.S.externalloadSrespfrom_in |     1635069     25.96%     25.96% |     1494340     23.73%     49.70% |     1534964     24.38%     74.07% |     1632845     25.93%    100.00%
system.ruby.L1Cache_Controller.S.externalloadSrespfrom_in::total      6297218                      
system.ruby.L1Cache_Controller.S_evict.Stallmandatory_in |         108     35.64%     35.64% |          45     14.85%     50.50% |          99     32.67%     83.17% |          51     16.83%    100.00%
system.ruby.L1Cache_Controller.S_evict.Stallmandatory_in::total          303                      
system.ruby.L1Cache_Controller.S_store.Progress |      162964     29.08%     29.08% |      106001     18.92%     48.00% |      140800     25.13%     73.13% |      150596     26.87%    100.00%
system.ruby.L1Cache_Controller.S_store.Progress::total       560361                      
system.ruby.L1Cache_Controller.SloadSEvent |   701049723     24.94%     24.94% |   700040755     24.91%     49.85% |   704788264     25.07%     74.92% |   704888181     25.08%    100.00%
system.ruby.L1Cache_Controller.SloadSEvent::total   2810766923                      
system.ruby.L1Cache_Controller.Stallfwdfrom_in |           2     33.33%     33.33% |           2     33.33%     66.67% |           1     16.67%     83.33% |           1     16.67%    100.00%
system.ruby.L1Cache_Controller.Stallfwdfrom_in::total            6                      
system.ruby.L1Cache_Controller.Stallmandatory_in |         269     38.87%     38.87% |          98     14.16%     53.03% |         182     26.30%     79.34% |         143     20.66%    100.00%
system.ruby.L1Cache_Controller.Stallmandatory_in::total          692                      
system.ruby.L1Cache_Controller.allocI_load |     1635069     25.96%     25.96% |     1494340     23.73%     49.70% |     1534964     24.38%     74.07% |     1632845     25.93%    100.00%
system.ruby.L1Cache_Controller.allocI_load::total      6297218                      
system.ruby.L1Cache_Controller.allocI_store |      863360     31.21%     31.21% |      555880     20.10%     51.31% |      575603     20.81%     72.11% |      771401     27.89%    100.00%
system.ruby.L1Cache_Controller.allocI_store::total      2766244                      
system.ruby.L1Cache_Controller.allocTBE  |     2659192     27.65%     27.65% |     2155220     22.41%     50.05% |     2250402     23.40%     73.45% |     2553821     26.55%    100.00%
system.ruby.L1Cache_Controller.allocTBE::total      9618635                      
system.ruby.L1Cache_Controller.deallocTBE |        2613     82.51%     82.51% |         230      7.26%     89.77% |         172      5.43%     95.20% |         152      4.80%    100.00%
system.ruby.L1Cache_Controller.deallocTBE::total         3167                      
system.ruby.L1Cache_Controller.deallocfwdfrom_in |     2497406     27.57%     27.57% |     2049220     22.62%     50.19% |     2109576     23.29%     73.47% |     2403234     26.53%    100.00%
system.ruby.L1Cache_Controller.deallocfwdfrom_in::total      9059436                      
system.ruby.L1Cache_Controller.externalloadSrespfrom_in |     1635069     25.96%     25.96% |     1494340     23.73%     49.70% |     1534964     24.38%     74.07% |     1632845     25.93%    100.00%
system.ruby.L1Cache_Controller.externalloadSrespfrom_in::total      6297218                      
system.ruby.L1Cache_Controller.externalstoreMrespfrom_in |     1022533     30.78%     30.78% |      661650     19.92%     50.69% |      716257     21.56%     72.25% |      921836     27.75%    100.00%
system.ruby.L1Cache_Controller.externalstoreMrespfrom_in::total      3322276                      
system.ruby.LD.hit_latency_hist_seqr::bucket_size            1                      
system.ruby.LD.hit_latency_hist_seqr::max_bucket            9                      
system.ruby.LD.hit_latency_hist_seqr::samples    480174622                      
system.ruby.LD.hit_latency_hist_seqr     |   480174622    100.00%    100.00% |           0      0.00%    100.00% |           0      0.00%    100.00% |           0      0.00%    100.00% |           0      0.00%    100.00% |           0      0.00%    100.00% |           0      0.00%    100.00% |           0      0.00%    100.00% |           0      0.00%    100.00% |           0      0.00%    100.00%
system.ruby.LD.hit_latency_hist_seqr::total    480174622                      
system.ruby.LD.latency_hist_seqr::bucket_size            1                      
system.ruby.LD.latency_hist_seqr::max_bucket            9                      
system.ruby.LD.latency_hist_seqr::samples    483830995                      
system.ruby.LD.latency_hist_seqr         |   483830995    100.00%    100.00% |           0      0.00%    100.00% |           0      0.00%    100.00% |           0      0.00%    100.00% |           0      0.00%    100.00% |           0      0.00%    100.00% |           0      0.00%    100.00% |           0      0.00%    100.00% |           0      0.00%    100.00% |           0      0.00%    100.00%
system.ruby.LD.latency_hist_seqr::total     483830995                      
system.ruby.LD.miss_latency_hist_seqr::bucket_size            1                      
system.ruby.LD.miss_latency_hist_seqr::max_bucket            9                      
system.ruby.LD.miss_latency_hist_seqr::samples      3656373                      
system.ruby.LD.miss_latency_hist_seqr    |     3656373    100.00%    100.00% |           0      0.00%    100.00% |           0      0.00%    100.00% |           0      0.00%    100.00% |           0      0.00%    100.00% |           0      0.00%    100.00% |           0      0.00%    100.00% |           0      0.00%    100.00% |           0      0.00%    100.00% |           0      0.00%    100.00%
system.ruby.LD.miss_latency_hist_seqr::total      3656373                      
system.ruby.Locked_RMW_Read.hit_latency_hist_seqr::bucket_size            1                      
system.ruby.Locked_RMW_Read.hit_latency_hist_seqr::max_bucket            9                      
system.ruby.Locked_RMW_Read.hit_latency_hist_seqr::samples       155668                      
system.ruby.Locked_RMW_Read.hit_latency_hist_seqr |      155668    100.00%    100.00% |           0      0.00%    100.00% |           0      0.00%    100.00% |           0      0.00%    100.00% |           0      0.00%    100.00% |           0      0.00%    100.00% |           0      0.00%    100.00% |           0      0.00%    100.00% |           0      0.00%    100.00% |           0      0.00%    100.00%
system.ruby.Locked_RMW_Read.hit_latency_hist_seqr::total       155668                      
system.ruby.Locked_RMW_Read.latency_hist_seqr::bucket_size            1                      
system.ruby.Locked_RMW_Read.latency_hist_seqr::max_bucket            9                      
system.ruby.Locked_RMW_Read.latency_hist_seqr::samples       181763                      
system.ruby.Locked_RMW_Read.latency_hist_seqr |      181763    100.00%    100.00% |           0      0.00%    100.00% |           0      0.00%    100.00% |           0      0.00%    100.00% |           0      0.00%    100.00% |           0      0.00%    100.00% |           0      0.00%    100.00% |           0      0.00%    100.00% |           0      0.00%    100.00% |           0      0.00%    100.00%
system.ruby.Locked_RMW_Read.latency_hist_seqr::total       181763                      
system.ruby.Locked_RMW_Read.miss_latency_hist_seqr::bucket_size            1                      
system.ruby.Locked_RMW_Read.miss_latency_hist_seqr::max_bucket            9                      
system.ruby.Locked_RMW_Read.miss_latency_hist_seqr::samples        26095                      
system.ruby.Locked_RMW_Read.miss_latency_hist_seqr |       26095    100.00%    100.00% |           0      0.00%    100.00% |           0      0.00%    100.00% |           0      0.00%    100.00% |           0      0.00%    100.00% |           0      0.00%    100.00% |           0      0.00%    100.00% |           0      0.00%    100.00% |           0      0.00%    100.00% |           0      0.00%    100.00%
system.ruby.Locked_RMW_Read.miss_latency_hist_seqr::total        26095                      
system.ruby.Locked_RMW_Write.hit_latency_hist_seqr::bucket_size            1                      
system.ruby.Locked_RMW_Write.hit_latency_hist_seqr::max_bucket            9                      
system.ruby.Locked_RMW_Write.hit_latency_hist_seqr::samples       181763                      
system.ruby.Locked_RMW_Write.hit_latency_hist_seqr |      181763    100.00%    100.00% |           0      0.00%    100.00% |           0      0.00%    100.00% |           0      0.00%    100.00% |           0      0.00%    100.00% |           0      0.00%    100.00% |           0      0.00%    100.00% |           0      0.00%    100.00% |           0      0.00%    100.00% |           0      0.00%    100.00%
system.ruby.Locked_RMW_Write.hit_latency_hist_seqr::total       181763                      
system.ruby.Locked_RMW_Write.latency_hist_seqr::bucket_size            1                      
system.ruby.Locked_RMW_Write.latency_hist_seqr::max_bucket            9                      
system.ruby.Locked_RMW_Write.latency_hist_seqr::samples       181763                      
system.ruby.Locked_RMW_Write.latency_hist_seqr |      181763    100.00%    100.00% |           0      0.00%    100.00% |           0      0.00%    100.00% |           0      0.00%    100.00% |           0      0.00%    100.00% |           0      0.00%    100.00% |           0      0.00%    100.00% |           0      0.00%    100.00% |           0      0.00%    100.00% |           0      0.00%    100.00%
system.ruby.Locked_RMW_Write.latency_hist_seqr::total       181763                      
system.ruby.RMW_Read.hit_latency_hist_seqr::bucket_size            1                      
system.ruby.RMW_Read.hit_latency_hist_seqr::max_bucket            9                      
system.ruby.RMW_Read.hit_latency_hist_seqr::samples      7206806                      
system.ruby.RMW_Read.hit_latency_hist_seqr |     7206806    100.00%    100.00% |           0      0.00%    100.00% |           0      0.00%    100.00% |           0      0.00%    100.00% |           0      0.00%    100.00% |           0      0.00%    100.00% |           0      0.00%    100.00% |           0      0.00%    100.00% |           0      0.00%    100.00% |           0      0.00%    100.00%
system.ruby.RMW_Read.hit_latency_hist_seqr::total      7206806                      
system.ruby.RMW_Read.latency_hist_seqr::bucket_size            1                      
system.ruby.RMW_Read.latency_hist_seqr::max_bucket            9                      
system.ruby.RMW_Read.latency_hist_seqr::samples      7263315                      
system.ruby.RMW_Read.latency_hist_seqr   |     7263315    100.00%    100.00% |           0      0.00%    100.00% |           0      0.00%    100.00% |           0      0.00%    100.00% |           0      0.00%    100.00% |           0      0.00%    100.00% |           0      0.00%    100.00% |           0      0.00%    100.00% |           0      0.00%    100.00% |           0      0.00%    100.00%
system.ruby.RMW_Read.latency_hist_seqr::total      7263315                      
system.ruby.RMW_Read.miss_latency_hist_seqr::bucket_size            1                      
system.ruby.RMW_Read.miss_latency_hist_seqr::max_bucket            9                      
system.ruby.RMW_Read.miss_latency_hist_seqr::samples        56509                      
system.ruby.RMW_Read.miss_latency_hist_seqr |       56509    100.00%    100.00% |           0      0.00%    100.00% |           0      0.00%    100.00% |           0      0.00%    100.00% |           0      0.00%    100.00% |           0      0.00%    100.00% |           0      0.00%    100.00% |           0      0.00%    100.00% |           0      0.00%    100.00% |           0      0.00%    100.00%
system.ruby.RMW_Read.miss_latency_hist_seqr::total        56509                      
system.ruby.ST.hit_latency_hist_seqr::bucket_size            1                      
system.ruby.ST.hit_latency_hist_seqr::max_bucket            9                      
system.ruby.ST.hit_latency_hist_seqr::samples    147576549                      
system.ruby.ST.hit_latency_hist_seqr     |   147576549    100.00%    100.00% |           0      0.00%    100.00% |           0      0.00%    100.00% |           0      0.00%    100.00% |           0      0.00%    100.00% |           0      0.00%    100.00% |           0      0.00%    100.00% |           0      0.00%    100.00% |           0      0.00%    100.00% |           0      0.00%    100.00%
system.ruby.ST.hit_latency_hist_seqr::total    147576549                      
system.ruby.ST.latency_hist_seqr::bucket_size            1                      
system.ruby.ST.latency_hist_seqr::max_bucket            9                      
system.ruby.ST.latency_hist_seqr::samples    150816221                      
system.ruby.ST.latency_hist_seqr         |   150816221    100.00%    100.00% |           0      0.00%    100.00% |           0      0.00%    100.00% |           0      0.00%    100.00% |           0      0.00%    100.00% |           0      0.00%    100.00% |           0      0.00%    100.00% |           0      0.00%    100.00% |           0      0.00%    100.00% |           0      0.00%    100.00%
system.ruby.ST.latency_hist_seqr::total     150816221                      
system.ruby.ST.miss_latency_hist_seqr::bucket_size            1                      
system.ruby.ST.miss_latency_hist_seqr::max_bucket            9                      
system.ruby.ST.miss_latency_hist_seqr::samples      3239672                      
system.ruby.ST.miss_latency_hist_seqr    |     3239672    100.00%    100.00% |           0      0.00%    100.00% |           0      0.00%    100.00% |           0      0.00%    100.00% |           0      0.00%    100.00% |           0      0.00%    100.00% |           0      0.00%    100.00% |           0      0.00%    100.00% |           0      0.00%    100.00% |           0      0.00%    100.00%
system.ruby.ST.miss_latency_hist_seqr::total      3239672                      
system.ruby.dir_cntrl0.fwdFrom.avg_buf_msgs     0.007155                       # Average number of messages in buffer
system.ruby.dir_cntrl0.fwdFrom.avg_stall_time  2999.961182                       # Average number of cycles messages are stalled in this MB
system.ruby.dir_cntrl0.reqTo.avg_buf_msgs     0.002461                       # Average number of messages in buffer
system.ruby.dir_cntrl0.reqTo.avg_stall_time  5622.182465                       # Average number of cycles messages are stalled in this MB
system.ruby.dir_cntrl0.requestToMemory.avg_buf_msgs     0.001704                       # Average number of messages in buffer
system.ruby.dir_cntrl0.requestToMemory.avg_stall_time   499.999998                       # Average number of cycles messages are stalled in this MB
system.ruby.dir_cntrl0.respFrom.avg_buf_msgs     0.007599                       # Average number of messages in buffer
system.ruby.dir_cntrl0.respFrom.avg_stall_time  3000.356066                       # Average number of cycles messages are stalled in this MB
system.ruby.dir_cntrl0.respTo.avg_buf_msgs     0.000001                       # Average number of messages in buffer
system.ruby.dir_cntrl0.respTo.avg_stall_time  7020.718152                       # Average number of cycles messages are stalled in this MB
system.ruby.dir_cntrl0.responseFromMemory.avg_buf_msgs     0.001706                       # Average number of messages in buffer
system.ruby.dir_cntrl0.responseFromMemory.avg_stall_time   499.999953                       # Average number of cycles messages are stalled in this MB
system.ruby.dir_cntrl1.fwdFrom.avg_buf_msgs     0.007068                       # Average number of messages in buffer
system.ruby.dir_cntrl1.fwdFrom.avg_stall_time  2999.973843                       # Average number of cycles messages are stalled in this MB
system.ruby.dir_cntrl1.reqTo.avg_buf_msgs     0.002428                       # Average number of messages in buffer
system.ruby.dir_cntrl1.reqTo.avg_stall_time  5638.366730                       # Average number of cycles messages are stalled in this MB
system.ruby.dir_cntrl1.requestToMemory.avg_buf_msgs     0.001684                       # Average number of messages in buffer
system.ruby.dir_cntrl1.requestToMemory.avg_stall_time   499.999942                       # Average number of cycles messages are stalled in this MB
system.ruby.dir_cntrl1.respFrom.avg_buf_msgs     0.007491                       # Average number of messages in buffer
system.ruby.dir_cntrl1.respFrom.avg_stall_time  3000.371730                       # Average number of cycles messages are stalled in this MB
system.ruby.dir_cntrl1.respTo.avg_buf_msgs     0.000002                       # Average number of messages in buffer
system.ruby.dir_cntrl1.respTo.avg_stall_time 10695.288251                       # Average number of cycles messages are stalled in this MB
system.ruby.dir_cntrl1.responseFromMemory.avg_buf_msgs     0.001686                       # Average number of messages in buffer
system.ruby.dir_cntrl1.responseFromMemory.avg_stall_time   499.999898                       # Average number of cycles messages are stalled in this MB
system.ruby.dir_cntrl2.fwdFrom.avg_buf_msgs     0.007408                       # Average number of messages in buffer
system.ruby.dir_cntrl2.fwdFrom.avg_stall_time  2999.971715                       # Average number of cycles messages are stalled in this MB
system.ruby.dir_cntrl2.reqTo.avg_buf_msgs     0.002556                       # Average number of messages in buffer
system.ruby.dir_cntrl2.reqTo.avg_stall_time  5567.419093                       # Average number of cycles messages are stalled in this MB
system.ruby.dir_cntrl2.requestToMemory.avg_buf_msgs     0.001754                       # Average number of messages in buffer
system.ruby.dir_cntrl2.requestToMemory.avg_stall_time   499.999818                       # Average number of cycles messages are stalled in this MB
system.ruby.dir_cntrl2.respFrom.avg_buf_msgs     0.007912                       # Average number of messages in buffer
system.ruby.dir_cntrl2.respFrom.avg_stall_time  3000.851550                       # Average number of cycles messages are stalled in this MB
system.ruby.dir_cntrl2.respTo.avg_buf_msgs     0.000001                       # Average number of messages in buffer
system.ruby.dir_cntrl2.respTo.avg_stall_time 10462.601238                       # Average number of cycles messages are stalled in this MB
system.ruby.dir_cntrl2.responseFromMemory.avg_buf_msgs     0.001756                       # Average number of messages in buffer
system.ruby.dir_cntrl2.responseFromMemory.avg_stall_time   499.999774                       # Average number of cycles messages are stalled in this MB
system.ruby.dir_cntrl3.fwdFrom.avg_buf_msgs     0.007012                       # Average number of messages in buffer
system.ruby.dir_cntrl3.fwdFrom.avg_stall_time  2999.965766                       # Average number of cycles messages are stalled in this MB
system.ruby.dir_cntrl3.reqTo.avg_buf_msgs     0.002413                       # Average number of messages in buffer
system.ruby.dir_cntrl3.reqTo.avg_stall_time  5622.835262                       # Average number of cycles messages are stalled in this MB
system.ruby.dir_cntrl3.requestToMemory.avg_buf_msgs     0.001675                       # Average number of messages in buffer
system.ruby.dir_cntrl3.requestToMemory.avg_stall_time   499.999998                       # Average number of cycles messages are stalled in this MB
system.ruby.dir_cntrl3.respFrom.avg_buf_msgs     0.007452                       # Average number of messages in buffer
system.ruby.dir_cntrl3.respFrom.avg_stall_time  3000.896526                       # Average number of cycles messages are stalled in this MB
system.ruby.dir_cntrl3.respTo.avg_buf_msgs     0.000001                       # Average number of messages in buffer
system.ruby.dir_cntrl3.respTo.avg_stall_time  9204.037612                       # Average number of cycles messages are stalled in this MB
system.ruby.dir_cntrl3.responseFromMemory.avg_buf_msgs     0.001677                       # Average number of messages in buffer
system.ruby.dir_cntrl3.responseFromMemory.avg_stall_time   499.999953                       # Average number of cycles messages are stalled in this MB
system.ruby.dma_cntrl0.cache.demand_accesses            0                       # Number of cache demand accesses
system.ruby.dma_cntrl0.cache.demand_hits            0                       # Number of cache demand hits
system.ruby.dma_cntrl0.cache.demand_misses            0                       # Number of cache demand misses
system.ruby.dma_cntrl0.fully_busy_cycles         5857                       # cycles for which number of transistions == max transitions
system.ruby.dma_cntrl0.fwdFrom.avg_buf_msgs     0.000001                       # Average number of messages in buffer
system.ruby.dma_cntrl0.fwdFrom.avg_stall_time  6498.760404                       # Average number of cycles messages are stalled in this MB
system.ruby.dma_cntrl0.mandatoryQueue.avg_buf_msgs     0.000204                       # Average number of messages in buffer
system.ruby.dma_cntrl0.mandatoryQueue.avg_stall_time 164630.517948                       # Average number of cycles messages are stalled in this MB
system.ruby.dma_cntrl0.reqTo.avg_buf_msgs     0.000326                       # Average number of messages in buffer
system.ruby.dma_cntrl0.reqTo.avg_stall_time 13380.590351                       # Average number of cycles messages are stalled in this MB
system.ruby.dma_cntrl0.respFrom.avg_buf_msgs     0.000002                       # Average number of messages in buffer
system.ruby.dma_cntrl0.respFrom.avg_stall_time 106411.754250                       # Average number of cycles messages are stalled in this MB
system.ruby.dma_cntrl0.respTo.avg_buf_msgs     0.000000                       # Average number of messages in buffer
system.ruby.dma_cntrl0.respTo.avg_stall_time   966.341938                       # Average number of cycles messages are stalled in this MB
system.ruby.hit_latency_hist_seqr::bucket_size            1                      
system.ruby.hit_latency_hist_seqr::max_bucket            9                      
system.ruby.hit_latency_hist_seqr::samples   3193068635                      
system.ruby.hit_latency_hist_seqr        |  3193068635    100.00%    100.00% |           0      0.00%    100.00% |           0      0.00%    100.00% |           0      0.00%    100.00% |           0      0.00%    100.00% |           0      0.00%    100.00% |           0      0.00%    100.00% |           0      0.00%    100.00% |           0      0.00%    100.00% |           0      0.00%    100.00%
system.ruby.hit_latency_hist_seqr::total   3193068635                      
system.ruby.io_controller.cache.demand_accesses            0                       # Number of cache demand accesses
system.ruby.io_controller.cache.demand_hits            0                       # Number of cache demand hits
system.ruby.io_controller.cache.demand_misses            0                       # Number of cache demand misses
system.ruby.l1_cntrl0.cache.demand_accesses            0                       # Number of cache demand accesses
system.ruby.l1_cntrl0.cache.demand_hits             0                       # Number of cache demand hits
system.ruby.l1_cntrl0.cache.demand_misses            0                       # Number of cache demand misses
system.ruby.l1_cntrl0.fwdFrom.avg_buf_msgs     0.001317                       # Average number of messages in buffer
system.ruby.l1_cntrl0.fwdFrom.avg_stall_time  6482.756499                       # Average number of cycles messages are stalled in this MB
system.ruby.l1_cntrl0.mandatoryQueue.avg_buf_msgs     0.459615                       # Average number of messages in buffer
system.ruby.l1_cntrl0.mandatoryQueue.avg_stall_time  2190.029289                       # Average number of cycles messages are stalled in this MB
system.ruby.l1_cntrl0.reqTo.avg_buf_msgs     0.002715                       # Average number of messages in buffer
system.ruby.l1_cntrl0.reqTo.avg_stall_time   499.999999                       # Average number of cycles messages are stalled in this MB
system.ruby.l1_cntrl0.respFrom.avg_buf_msgs     0.001403                       # Average number of messages in buffer
system.ruby.l1_cntrl0.respFrom.avg_stall_time 16476.512311                       # Average number of cycles messages are stalled in this MB
system.ruby.l1_cntrl0.respTo.avg_buf_msgs     0.000005                       # Average number of messages in buffer
system.ruby.l1_cntrl0.respTo.avg_stall_time   999.788519                       # Average number of cycles messages are stalled in this MB
system.ruby.l1_cntrl1.cache.demand_accesses            0                       # Number of cache demand accesses
system.ruby.l1_cntrl1.cache.demand_hits             0                       # Number of cache demand hits
system.ruby.l1_cntrl1.cache.demand_misses            0                       # Number of cache demand misses
system.ruby.l1_cntrl1.fwdFrom.avg_buf_msgs     1.000155                       # Average number of messages in buffer
system.ruby.l1_cntrl1.fwdFrom.avg_stall_time  6558.862382                       # Average number of cycles messages are stalled in this MB
system.ruby.l1_cntrl1.mandatoryQueue.avg_buf_msgs     0.450546                       # Average number of messages in buffer
system.ruby.l1_cntrl1.mandatoryQueue.avg_stall_time  1812.627565                       # Average number of cycles messages are stalled in this MB
system.ruby.l1_cntrl1.reqTo.avg_buf_msgs     0.002214                       # Average number of messages in buffer
system.ruby.l1_cntrl1.reqTo.avg_stall_time   499.999999                       # Average number of cycles messages are stalled in this MB
system.ruby.l1_cntrl1.respFrom.avg_buf_msgs     0.001136                       # Average number of messages in buffer
system.ruby.l1_cntrl1.respFrom.avg_stall_time 16594.789134                       # Average number of cycles messages are stalled in this MB
system.ruby.l1_cntrl1.respTo.avg_buf_msgs     0.000003                       # Average number of messages in buffer
system.ruby.l1_cntrl1.respTo.avg_stall_time   999.988110                       # Average number of cycles messages are stalled in this MB
system.ruby.l1_cntrl2.cache.demand_accesses            0                       # Number of cache demand accesses
system.ruby.l1_cntrl2.cache.demand_hits             0                       # Number of cache demand hits
system.ruby.l1_cntrl2.cache.demand_misses            0                       # Number of cache demand misses
system.ruby.l1_cntrl2.fwdFrom.avg_buf_msgs     0.001111                       # Average number of messages in buffer
system.ruby.l1_cntrl2.fwdFrom.avg_stall_time  6414.227990                       # Average number of cycles messages are stalled in this MB
system.ruby.l1_cntrl2.mandatoryQueue.avg_buf_msgs     0.453503                       # Average number of messages in buffer
system.ruby.l1_cntrl2.mandatoryQueue.avg_stall_time  1858.654281                       # Average number of cycles messages are stalled in this MB
system.ruby.l1_cntrl2.reqTo.avg_buf_msgs     0.002296                       # Average number of messages in buffer
system.ruby.l1_cntrl2.reqTo.avg_stall_time   499.826610                       # Average number of cycles messages are stalled in this MB
system.ruby.l1_cntrl2.respFrom.avg_buf_msgs     0.001186                       # Average number of messages in buffer
system.ruby.l1_cntrl2.respFrom.avg_stall_time 16429.487665                       # Average number of cycles messages are stalled in this MB
system.ruby.l1_cntrl2.respTo.avg_buf_msgs     0.000004                       # Average number of messages in buffer
system.ruby.l1_cntrl2.respTo.avg_stall_time   999.622786                       # Average number of cycles messages are stalled in this MB
system.ruby.l1_cntrl3.cache.demand_accesses            0                       # Number of cache demand accesses
system.ruby.l1_cntrl3.cache.demand_hits             0                       # Number of cache demand hits
system.ruby.l1_cntrl3.cache.demand_misses            0                       # Number of cache demand misses
system.ruby.l1_cntrl3.fwdFrom.avg_buf_msgs     0.001266                       # Average number of messages in buffer
system.ruby.l1_cntrl3.fwdFrom.avg_stall_time  6493.026166                       # Average number of cycles messages are stalled in this MB
system.ruby.l1_cntrl3.mandatoryQueue.avg_buf_msgs     0.458906                       # Average number of messages in buffer
system.ruby.l1_cntrl3.mandatoryQueue.avg_stall_time  2100.546072                       # Average number of cycles messages are stalled in this MB
system.ruby.l1_cntrl3.reqTo.avg_buf_msgs     0.002611                       # Average number of messages in buffer
system.ruby.l1_cntrl3.reqTo.avg_stall_time   499.999999                       # Average number of cycles messages are stalled in this MB
system.ruby.l1_cntrl3.respFrom.avg_buf_msgs     0.001346                       # Average number of messages in buffer
system.ruby.l1_cntrl3.respFrom.avg_stall_time 16534.737815                       # Average number of cycles messages are stalled in this MB
system.ruby.l1_cntrl3.respTo.avg_buf_msgs     0.000003                       # Average number of messages in buffer
system.ruby.l1_cntrl3.respTo.avg_stall_time   999.988086                       # Average number of cycles messages are stalled in this MB
system.ruby.latency_hist_seqr::bucket_size            1                      
system.ruby.latency_hist_seqr::max_bucket            9                      
system.ruby.latency_hist_seqr::samples     3202688129                      
system.ruby.latency_hist_seqr            |  3202688129    100.00%    100.00% |           0      0.00%    100.00% |           0      0.00%    100.00% |           0      0.00%    100.00% |           0      0.00%    100.00% |           0      0.00%    100.00% |           0      0.00%    100.00% |           0      0.00%    100.00% |           0      0.00%    100.00% |           0      0.00%    100.00%
system.ruby.latency_hist_seqr::total       3202688129                      
system.ruby.miss_latency_hist_seqr::bucket_size            1                      
system.ruby.miss_latency_hist_seqr::max_bucket            9                      
system.ruby.miss_latency_hist_seqr::samples      9619494                      
system.ruby.miss_latency_hist_seqr       |     9619494    100.00%    100.00% |           0      0.00%    100.00% |           0      0.00%    100.00% |           0      0.00%    100.00% |           0      0.00%    100.00% |           0      0.00%    100.00% |           0      0.00%    100.00% |           0      0.00%    100.00% |           0      0.00%    100.00% |           0      0.00%    100.00%
system.ruby.miss_latency_hist_seqr::total      9619494                      
system.ruby.network.average_flit_latency    16.489407                      
system.ruby.network.average_flit_network_latency    12.258887                      
system.ruby.network.average_flit_queueing_latency     4.230520                      
system.ruby.network.average_flit_vnet_latency |   15.003028                       |    4.993345                       |   10.186054                      
system.ruby.network.average_flit_vqueue_latency |    6.006213                       |    6.000000                       |    1.053844                      
system.ruby.network.average_hops             0.993468                      
system.ruby.network.average_packet_latency    15.442282                      
system.ruby.network.average_packet_network_latency    11.923762                      
system.ruby.network.average_packet_queueing_latency     3.518520                      
system.ruby.network.average_packet_vnet_latency |   24.986547                       |    4.993345                       |    8.546783                      
system.ruby.network.average_packet_vqueue_latency |    6.001705                       |    6.000000                       |    1.032894                      
system.ruby.network.avg_link_utilization     0.140594                      
system.ruby.network.avg_vc_load          |    0.056754     40.37%     40.37% |    0.006446      4.58%     44.95% |    0.006344      4.51%     49.46% |    0.006343      4.51%     53.98% |    0.010722      7.63%     61.60% |    0.001196      0.85%     62.45% |    0.001194      0.85%     63.30% |    0.001194      0.85%     64.15% |    0.037526     26.69%     90.84% |    0.004456      3.17%     94.01% |    0.004211      3.00%     97.01% |    0.004207      2.99%    100.00%
system.ruby.network.avg_vc_load::total       0.140594                      
system.ruby.network.ext_in_link_utilization     89164906                      
system.ruby.network.ext_out_link_utilization     89164906                      
system.ruby.network.flit_network_latency |   722262202                       |    45263293                       |   325536981                      
system.ruby.network.flit_queueing_latency |   289145687                       |    54388345                       |    33679884                      
system.ruby.network.flits_injected       |    48141096     53.99%     53.99% |     9064724     10.17%     64.16% |    31959086     35.84%    100.00%
system.ruby.network.flits_injected::total     89164906                      
system.ruby.network.flits_received       |    48141096     53.99%     53.99% |     9064724     10.17%     64.16% |    31959086     35.84%    100.00%
system.ruby.network.flits_received::total     89164906                      
system.ruby.network.int_link_utilization     88582490                      
system.ruby.network.packet_network_latency |   240817437                       |    45263293                       |   159637007                      
system.ruby.network.packet_queueing_latency |    57843739                       |    54388345                       |    19292424                      
system.ruby.network.packets_injected     |     9637884     25.78%     25.78% |     9064724     24.25%     50.03% |    18678022     49.97%    100.00%
system.ruby.network.packets_injected::total     37380630                      
system.ruby.network.packets_received     |     9637884     25.78%     25.78% |     9064724     24.25%     50.03% |    18678022     49.97%    100.00%
system.ruby.network.packets_received::total     37380630                      
system.ruby.network.routers0.buffer_reads     46005635                      
system.ruby.network.routers0.buffer_writes     46005635                      
system.ruby.network.routers0.crossbar_activity     46005635                      
system.ruby.network.routers0.sw_input_arbiter_activity     46046592                      
system.ruby.network.routers0.sw_output_arbiter_activity     46005635                      
system.ruby.network.routers1.buffer_reads     42806009                      
system.ruby.network.routers1.buffer_writes     42806009                      
system.ruby.network.routers1.crossbar_activity     42806009                      
system.ruby.network.routers1.sw_input_arbiter_activity     42837159                      
system.ruby.network.routers1.sw_output_arbiter_activity     42806009                      
system.ruby.network.routers2.buffer_reads     44127852                      
system.ruby.network.routers2.buffer_writes     44127852                      
system.ruby.network.routers2.crossbar_activity     44127852                      
system.ruby.network.routers2.sw_input_arbiter_activity     44162644                      
system.ruby.network.routers2.sw_output_arbiter_activity     44127852                      
system.ruby.network.routers3.buffer_reads     44807900                      
system.ruby.network.routers3.buffer_writes     44807900                      
system.ruby.network.routers3.crossbar_activity     44807900                      
system.ruby.network.routers3.sw_input_arbiter_activity     44840394                      
system.ruby.network.routers3.sw_output_arbiter_activity     44807900                      
system.ruby.outstanding_req_hist_seqr::bucket_size            1                      
system.ruby.outstanding_req_hist_seqr::max_bucket            9                      
system.ruby.outstanding_req_hist_seqr::samples   3202688129                      
system.ruby.outstanding_req_hist_seqr::mean     1.000000                      
system.ruby.outstanding_req_hist_seqr::gmean     1.000000                      
system.ruby.outstanding_req_hist_seqr::stdev     0.000068                      
system.ruby.outstanding_req_hist_seqr    |           0      0.00%      0.00% |  3202688114    100.00%    100.00% |          15      0.00%    100.00% |           0      0.00%    100.00% |           0      0.00%    100.00% |           0      0.00%    100.00% |           0      0.00%    100.00% |           0      0.00%    100.00% |           0      0.00%    100.00% |           0      0.00%    100.00%
system.ruby.outstanding_req_hist_seqr::total   3202688129                      
system.switch_cpus0.Branches                 59899418                       # Number of branches fetched
system.switch_cpus0.committedInsts          438394967                       # Number of instructions committed
system.switch_cpus0.committedOps            794475190                       # Number of ops (including micro ops) committed
system.switch_cpus0.dtb.rdAccesses          122579501                       # TLB accesses on read requests
system.switch_cpus0.dtb.rdMisses                39954                       # TLB misses on read requests
system.switch_cpus0.dtb.wrAccesses           37832207                       # TLB accesses on write requests
system.switch_cpus0.dtb.wrMisses                 7924                       # TLB misses on write requests
system.switch_cpus0.idle_fraction                   0                       # Percentage of idle cycles
system.switch_cpus0.itb.rdAccesses                  0                       # TLB accesses on read requests
system.switch_cpus0.itb.rdMisses                    0                       # TLB misses on read requests
system.switch_cpus0.itb.wrAccesses          639019817                       # TLB accesses on write requests
system.switch_cpus0.itb.wrMisses                17629                       # TLB misses on write requests
system.switch_cpus0.kern.inst.arm                   0                       # number of arm instructions executed
system.switch_cpus0.kern.inst.quiesce               0                       # number of quiesce instructions executed
system.switch_cpus0.not_idle_fraction               1                       # Percentage of non-idle cycles
system.switch_cpus0.numCycles              1898460020                       # number of cpu cycles simulated
system.switch_cpus0.numWorkItemsCompleted            0                       # number of work items this cpu completed
system.switch_cpus0.numWorkItemsStarted             0                       # number of work items this cpu started
system.switch_cpus0.num_busy_cycles        1898460020                       # Number of busy cycles
system.switch_cpus0.num_cc_register_reads    288279283                       # number of times the CC registers were read
system.switch_cpus0.num_cc_register_writes    228129292                       # number of times the CC registers were written
system.switch_cpus0.num_conditional_control_insts     45464505                       # number of instructions that are conditional controls
system.switch_cpus0.num_fp_alu_accesses     272925798                       # Number of float alu accesses
system.switch_cpus0.num_fp_insts            272925798                       # number of float instructions
system.switch_cpus0.num_fp_register_reads    411444543                       # number of times the floating registers were read
system.switch_cpus0.num_fp_register_writes    247600342                       # number of times the floating registers were written
system.switch_cpus0.num_func_calls            8994682                       # number of times a function call or return occured
system.switch_cpus0.num_idle_cycles                 0                       # Number of idle cycles
system.switch_cpus0.num_int_alu_accesses    612127429                       # Number of integer alu accesses
system.switch_cpus0.num_int_insts           612127429                       # number of integer instructions
system.switch_cpus0.num_int_register_reads   1152066998                       # number of times the integer registers were read
system.switch_cpus0.num_int_register_writes    447311446                       # number of times the integer registers were written
system.switch_cpus0.num_load_insts          122539541                       # Number of load instructions
system.switch_cpus0.num_mem_refs            160363865                       # number of memory refs
system.switch_cpus0.num_store_insts          37824324                       # Number of store instructions
system.switch_cpus0.num_vec_alu_accesses            0                       # Number of vector alu accesses
system.switch_cpus0.num_vec_insts                   0                       # number of vector instructions
system.switch_cpus0.num_vec_register_reads            0                       # number of times the vector registers were read
system.switch_cpus0.num_vec_register_writes            0                       # number of times the vector registers were written
system.switch_cpus0.op_class::No_OpClass       311971      0.04%      0.04% # Class of executed instruction
system.switch_cpus0.op_class::IntAlu        475938703     59.91%     59.95% # Class of executed instruction
system.switch_cpus0.op_class::IntMult         4882838      0.61%     60.56% # Class of executed instruction
system.switch_cpus0.op_class::IntDiv            44977      0.01%     60.57% # Class of executed instruction
system.switch_cpus0.op_class::FloatAdd       29968673      3.77%     64.34% # Class of executed instruction
system.switch_cpus0.op_class::FloatCmp              0      0.00%     64.34% # Class of executed instruction
system.switch_cpus0.op_class::FloatCvt            272      0.00%     64.34% # Class of executed instruction
system.switch_cpus0.op_class::FloatMult             0      0.00%     64.34% # Class of executed instruction
system.switch_cpus0.op_class::FloatMultAcc            0      0.00%     64.34% # Class of executed instruction
system.switch_cpus0.op_class::FloatDiv              0      0.00%     64.34% # Class of executed instruction
system.switch_cpus0.op_class::FloatMisc             0      0.00%     64.34% # Class of executed instruction
system.switch_cpus0.op_class::FloatSqrt             0      0.00%     64.34% # Class of executed instruction
system.switch_cpus0.op_class::SimdAdd             554      0.00%     64.34% # Class of executed instruction
system.switch_cpus0.op_class::SimdAddAcc            0      0.00%     64.34% # Class of executed instruction
system.switch_cpus0.op_class::SimdAlu        19958929      2.51%     66.85% # Class of executed instruction
system.switch_cpus0.op_class::SimdCmp               0      0.00%     66.85% # Class of executed instruction
system.switch_cpus0.op_class::SimdCvt             344      0.00%     66.85% # Class of executed instruction
system.switch_cpus0.op_class::SimdMisc        7642437      0.96%     67.81% # Class of executed instruction
system.switch_cpus0.op_class::SimdMult              0      0.00%     67.81% # Class of executed instruction
system.switch_cpus0.op_class::SimdMultAcc            0      0.00%     67.81% # Class of executed instruction
system.switch_cpus0.op_class::SimdShift           240      0.00%     67.81% # Class of executed instruction
system.switch_cpus0.op_class::SimdShiftAcc            0      0.00%     67.81% # Class of executed instruction
system.switch_cpus0.op_class::SimdDiv               0      0.00%     67.81% # Class of executed instruction
system.switch_cpus0.op_class::SimdSqrt              0      0.00%     67.81% # Class of executed instruction
system.switch_cpus0.op_class::SimdFloatAdd     42962640      5.41%     73.22% # Class of executed instruction
system.switch_cpus0.op_class::SimdFloatAlu            0      0.00%     73.22% # Class of executed instruction
system.switch_cpus0.op_class::SimdFloatCmp        40000      0.01%     73.22% # Class of executed instruction
system.switch_cpus0.op_class::SimdFloatCvt      8493079      1.07%     74.29% # Class of executed instruction
system.switch_cpus0.op_class::SimdFloatDiv      1016055      0.13%     74.42% # Class of executed instruction
system.switch_cpus0.op_class::SimdFloatMisc            0      0.00%     74.42% # Class of executed instruction
system.switch_cpus0.op_class::SimdFloatMult     42847139      5.39%     79.81% # Class of executed instruction
system.switch_cpus0.op_class::SimdFloatMultAcc            0      0.00%     79.81% # Class of executed instruction
system.switch_cpus0.op_class::SimdFloatSqrt         2508      0.00%     79.82% # Class of executed instruction
system.switch_cpus0.op_class::SimdReduceAdd            0      0.00%     79.82% # Class of executed instruction
system.switch_cpus0.op_class::SimdReduceAlu            0      0.00%     79.82% # Class of executed instruction
system.switch_cpus0.op_class::SimdReduceCmp            0      0.00%     79.82% # Class of executed instruction
system.switch_cpus0.op_class::SimdFloatReduceAdd            0      0.00%     79.82% # Class of executed instruction
system.switch_cpus0.op_class::SimdFloatReduceCmp            0      0.00%     79.82% # Class of executed instruction
system.switch_cpus0.op_class::SimdAes               0      0.00%     79.82% # Class of executed instruction
system.switch_cpus0.op_class::SimdAesMix            0      0.00%     79.82% # Class of executed instruction
system.switch_cpus0.op_class::SimdSha1Hash            0      0.00%     79.82% # Class of executed instruction
system.switch_cpus0.op_class::SimdSha1Hash2            0      0.00%     79.82% # Class of executed instruction
system.switch_cpus0.op_class::SimdSha256Hash            0      0.00%     79.82% # Class of executed instruction
system.switch_cpus0.op_class::SimdSha256Hash2            0      0.00%     79.82% # Class of executed instruction
system.switch_cpus0.op_class::SimdShaSigma2            0      0.00%     79.82% # Class of executed instruction
system.switch_cpus0.op_class::SimdShaSigma3            0      0.00%     79.82% # Class of executed instruction
system.switch_cpus0.op_class::SimdPredAlu            0      0.00%     79.82% # Class of executed instruction
system.switch_cpus0.op_class::MemRead        52645426      6.63%     86.44% # Class of executed instruction
system.switch_cpus0.op_class::MemWrite       23917268      3.01%     89.45% # Class of executed instruction
system.switch_cpus0.op_class::FloatMemRead     69894115      8.80%     98.25% # Class of executed instruction
system.switch_cpus0.op_class::FloatMemWrite     13907056      1.75%    100.00% # Class of executed instruction
system.switch_cpus0.op_class::IprAccess             0      0.00%    100.00% # Class of executed instruction
system.switch_cpus0.op_class::InstPrefetch            0      0.00%    100.00% # Class of executed instruction
system.switch_cpus0.op_class::total         794475224                       # Class of executed instruction
system.switch_cpus1.Branches                 59666002                       # Number of branches fetched
system.switch_cpus1.committedInsts          438098873                       # Number of instructions committed
system.switch_cpus1.committedOps            792901332                       # Number of ops (including micro ops) committed
system.switch_cpus1.dtb.rdAccesses          122341094                       # TLB accesses on read requests
system.switch_cpus1.dtb.rdMisses                36434                       # TLB misses on read requests
system.switch_cpus1.dtb.wrAccesses           37584066                       # TLB accesses on write requests
system.switch_cpus1.dtb.wrMisses                 7570                       # TLB misses on write requests
system.switch_cpus1.idle_fraction            0.031918                       # Percentage of idle cycles
system.switch_cpus1.itb.rdAccesses                  0                       # TLB accesses on read requests
system.switch_cpus1.itb.rdMisses                    0                       # TLB misses on read requests
system.switch_cpus1.itb.wrAccesses          638658919                       # TLB accesses on write requests
system.switch_cpus1.itb.wrMisses                16932                       # TLB misses on write requests
system.switch_cpus1.kern.inst.arm                   0                       # number of arm instructions executed
system.switch_cpus1.kern.inst.quiesce               0                       # number of quiesce instructions executed
system.switch_cpus1.not_idle_fraction        0.968082                       # Percentage of non-idle cycles
system.switch_cpus1.numCycles              1897465692                       # number of cpu cycles simulated
system.switch_cpus1.numWorkItemsCompleted            0                       # number of work items this cpu completed
system.switch_cpus1.numWorkItemsStarted             0                       # number of work items this cpu started
system.switch_cpus1.num_busy_cycles      1836902330.740196                       # Number of busy cycles
system.switch_cpus1.num_cc_register_reads    286859107                       # number of times the CC registers were read
system.switch_cpus1.num_cc_register_writes    227670215                       # number of times the CC registers were written
system.switch_cpus1.num_conditional_control_insts     45261495                       # number of instructions that are conditional controls
system.switch_cpus1.num_fp_alu_accesses     273210422                       # Number of float alu accesses
system.switch_cpus1.num_fp_insts            273210422                       # number of float instructions
system.switch_cpus1.num_fp_register_reads    411924043                       # number of times the floating registers were read
system.switch_cpus1.num_fp_register_writes    247859354                       # number of times the floating registers were written
system.switch_cpus1.num_func_calls            8968790                       # number of times a function call or return occured
system.switch_cpus1.num_idle_cycles      60563361.259804                       # Number of idle cycles
[...]
system.mem_ctrls1.llc.ReadReq_avg_mshr_miss_latency::total 62198.622708                       # average ReadReq mshr miss latency
system.mem_ctrls1.llc.WriteReq_hits::.ruby.dir_cntrl1       829314                       # number of WriteReq hits
system.mem_ctrls1.llc.WriteReq_hits::total       829314                       # number of WriteReq hits
system.mem_ctrls1.llc.WriteReq_accesses::.ruby.dir_cntrl1       829314                       # number of WriteReq accesses(hits+misses)
system.mem_ctrls1.llc.WriteReq_accesses::total       829314                       # number of WriteReq accesses(hits+misses)
system.mem_ctrls1.llc.power_state.pwrStateResidencyTicks::UNDEFINED 99275094675001                       # Cumulative time (in ticks) in various power states
system.mem_ctrls1.llc.tags.tagsinuse      4349.949038                       # Cycle average of tags in use
system.mem_ctrls1.llc.tags.total_refs               0                       # Total number of references to valid blocks.
system.mem_ctrls1.llc.tags.sampled_refs             0                       # Sample count of references to valid blocks.
system.mem_ctrls1.llc.tags.avg_refs               nan                       # Average number of references to valid blocks.
system.mem_ctrls1.llc.tags.warmup_cycle  98325864716500                       # Cycle when the warmup percentage was hit.
system.mem_ctrls1.llc.tags.occ_blocks::.ruby.dir_cntrl1  4349.949038                       # Average occupied blocks per requestor
system.mem_ctrls1.llc.tags.occ_percent::.ruby.dir_cntrl1     0.016594                       # Average percentage of cache occupancy
system.mem_ctrls1.llc.tags.occ_percent::total     0.016594                       # Average percentage of cache occupancy
system.mem_ctrls1.llc.tags.occ_task_id_blocks::1024         5399                       # Occupied blocks per task id
system.mem_ctrls1.llc.tags.age_task_id_blocks_1024::0            4                       # Occupied blocks per task id
system.mem_ctrls1.llc.tags.age_task_id_blocks_1024::1            1                       # Occupied blocks per task id
system.mem_ctrls1.llc.tags.age_task_id_blocks_1024::2            4                       # Occupied blocks per task id
system.mem_ctrls1.llc.tags.age_task_id_blocks_1024::3           20                       # Occupied blocks per task id
system.mem_ctrls1.llc.tags.age_task_id_blocks_1024::4         5370                       # Occupied blocks per task id
system.mem_ctrls1.llc.tags.occ_task_id_percent::1024     0.020596                       # Percentage of cache occupancy per task id
system.mem_ctrls1.llc.tags.tag_accesses      51167319                       # Number of tag accesses
system.mem_ctrls1.llc.tags.data_accesses      3197620                       # Number of data accesses
system.mem_ctrls1.llc.tags.power_state.pwrStateResidencyTicks::UNDEFINED 99275094675001                       # Cumulative time (in ticks) in various power states
system.mem_ctrls1.rank1.actEnergy             6111840                       # Energy for activate commands per rank (pJ)
system.mem_ctrls1.rank1.preEnergy             3248520                       # Energy for precharge commands per rank (pJ)
system.mem_ctrls1.rank1.readEnergy           18713940                       # Energy for read commands per rank (pJ)
system.mem_ctrls1.rank1.writeEnergy                 0                       # Energy for write commands per rank (pJ)
system.mem_ctrls1.rank1.refreshEnergy    74931377040.000015                       # Energy for refresh commands per rank (pJ)
system.mem_ctrls1.rank1.actBackEnergy     14540479980                       # Energy for active background per rank (pJ)
system.mem_ctrls1.rank1.preBackEnergy    352259666880                       # Energy for precharge background per rank (pJ)
system.mem_ctrls1.rank1.actPowerDownEnergy            0                       # Energy for active power-down per rank (pJ)
system.mem_ctrls1.rank1.prePowerDownEnergy            0                       # Energy for precharge power-down per rank (pJ)
system.mem_ctrls1.rank1.selfRefreshEnergy            0                       # Energy for self refresh per rank (pJ)
system.mem_ctrls1.rank1.totalEnergy      441759598200                       # Total energy per rank (pJ)
system.mem_ctrls1.rank1.averagePower       465.387248                       # Core power per rank (mW)
system.mem_ctrls1.rank1.totalIdleTime               0                       # Total Idle time Per DRAM Rank
system.mem_ctrls1.rank1.memoryStateTime::IDLE 915661593751                       # Time in different power states
system.mem_ctrls1.rank1.memoryStateTime::REF  31696860000                       # Time in different power states
system.mem_ctrls1.rank1.memoryStateTime::SREF            0                       # Time in different power states
system.mem_ctrls1.rank1.memoryStateTime::PRE_PDN            0                       # Time in different power states
system.mem_ctrls1.rank1.memoryStateTime::ACT   1871677750                       # Time in different power states
system.mem_ctrls1.rank1.memoryStateTime::ACT_PDN            0                       # Time in different power states
system.mem_ctrls1.rank0.actEnergy             7161420                       # Energy for activate commands per rank (pJ)
system.mem_ctrls1.rank0.preEnergy             3806385                       # Energy for precharge commands per rank (pJ)
system.mem_ctrls1.rank0.readEnergy           19834920                       # Energy for read commands per rank (pJ)
system.mem_ctrls1.rank0.writeEnergy                 0                       # Energy for write commands per rank (pJ)
system.mem_ctrls1.rank0.refreshEnergy    74931377040.000015                       # Energy for refresh commands per rank (pJ)
system.mem_ctrls1.rank0.actBackEnergy     14689885530                       # Energy for active background per rank (pJ)
system.mem_ctrls1.rank0.preBackEnergy    352133894400                       # Energy for precharge background per rank (pJ)
system.mem_ctrls1.rank0.actPowerDownEnergy            0                       # Energy for active power-down per rank (pJ)
system.mem_ctrls1.rank0.prePowerDownEnergy            0                       # Energy for precharge power-down per rank (pJ)
system.mem_ctrls1.rank0.selfRefreshEnergy            0                       # Energy for self refresh per rank (pJ)
system.mem_ctrls1.rank0.totalEnergy      441785959695                       # Total energy per rank (pJ)
system.mem_ctrls1.rank0.averagePower       465.415019                       # Core power per rank (mW)
system.mem_ctrls1.rank0.totalIdleTime               0                       # Total Idle time Per DRAM Rank
system.mem_ctrls1.rank0.memoryStateTime::IDLE 915333419251                       # Time in different power states
system.mem_ctrls1.rank0.memoryStateTime::REF  31696860000                       # Time in different power states
system.mem_ctrls1.rank0.memoryStateTime::SREF            0                       # Time in different power states
system.mem_ctrls1.rank0.memoryStateTime::PRE_PDN            0                       # Time in different power states
system.mem_ctrls1.rank0.memoryStateTime::ACT   2199852250                       # Time in different power states
system.mem_ctrls1.rank0.memoryStateTime::ACT_PDN            0                       # Time in different power states
system.mem_ctrls1.power_state.pwrStateResidencyTicks::UNDEFINED 99275094675001                       # Cumulative time (in ticks) in various power states
system.cpu_voltage_domain.voltage                   1                       # Voltage in Volts
system.iobus.trans_dist::ReadReq                  555                       # Transaction distribution
system.iobus.trans_dist::ReadResp                 555                       # Transaction distribution
system.iobus.trans_dist::WriteReq                4250                       # Transaction distribution
system.iobus.trans_dist::WriteResp               4250                       # Transaction distribution
system.iobus.pkt_count_system.pc.south_bridge.io_apic.int_master::system.ruby.l1_cntrl1.sequencer.pio-slave-port          356                       # Packet count per connected master and slave (bytes)
system.iobus.pkt_count_system.pc.south_bridge.io_apic.int_master::total          356                       # Packet count per connected master and slave (bytes)
system.iobus.pkt_count_system.ruby.l1_cntrl0.sequencer.mem-master-port::system.ruby.l1_cntrl0.sequencer.pio-slave-port         1938                       # Packet count per connected master and slave (bytes)
system.iobus.pkt_count_system.ruby.l1_cntrl0.sequencer.mem-master-port::system.ruby.l1_cntrl1.sequencer.pio-slave-port            6                       # Packet count per connected master and slave (bytes)
system.iobus.pkt_count_system.ruby.l1_cntrl0.sequencer.mem-master-port::system.ruby.l1_cntrl2.sequencer.pio-slave-port            2                       # Packet count per connected master and slave (bytes)
system.iobus.pkt_count_system.ruby.l1_cntrl0.sequencer.mem-master-port::system.ruby.l1_cntrl3.sequencer.pio-slave-port            2                       # Packet count per connected master and slave (bytes)
system.iobus.pkt_count_system.ruby.l1_cntrl0.sequencer.mem-master-port::total         1948                       # Packet count per connected master and slave (bytes)
system.iobus.pkt_count_system.ruby.l1_cntrl1.sequencer.mem-master-port::system.pc.south_bridge.ide.pio           38                       # Packet count per connected master and slave (bytes)
system.iobus.pkt_count_system.ruby.l1_cntrl1.sequencer.mem-master-port::system.pc.com_1.pio         1408                       # Packet count per connected master and slave (bytes)
system.iobus.pkt_count_system.ruby.l1_cntrl1.sequencer.mem-master-port::system.ruby.l1_cntrl1.sequencer.pio-slave-port         1944                       # Packet count per connected master and slave (bytes)
system.iobus.pkt_count_system.ruby.l1_cntrl1.sequencer.mem-master-port::system.ruby.l1_cntrl2.sequencer.pio-slave-port            2                       # Packet count per connected master and slave (bytes)
system.iobus.pkt_count_system.ruby.l1_cntrl1.sequencer.mem-master-port::system.ruby.l1_cntrl3.sequencer.pio-slave-port            2                       # Packet count per connected master and slave (bytes)
system.iobus.pkt_count_system.ruby.l1_cntrl1.sequencer.mem-master-port::total         3394                       # Packet count per connected master and slave (bytes)
system.iobus.pkt_count_system.ruby.l1_cntrl2.sequencer.mem-master-port::system.pc.south_bridge.ide.pio           34                       # Packet count per connected master and slave (bytes)
system.iobus.pkt_count_system.ruby.l1_cntrl2.sequencer.mem-master-port::system.ruby.l1_cntrl0.sequencer.pio-slave-port            2                       # Packet count per connected master and slave (bytes)
system.iobus.pkt_count_system.ruby.l1_cntrl2.sequencer.mem-master-port::system.ruby.l1_cntrl1.sequencer.pio-slave-port            6                       # Packet count per connected master and slave (bytes)
system.iobus.pkt_count_system.ruby.l1_cntrl2.sequencer.mem-master-port::system.ruby.l1_cntrl2.sequencer.pio-slave-port         1934                       # Packet count per connected master and slave (bytes)
system.iobus.pkt_count_system.ruby.l1_cntrl2.sequencer.mem-master-port::total         1976                       # Packet count per connected master and slave (bytes)
system.iobus.pkt_count_system.ruby.l1_cntrl3.sequencer.mem-master-port::system.pc.com_1.pio            2                       # Packet count per connected master and slave (bytes)
system.iobus.pkt_count_system.ruby.l1_cntrl3.sequencer.mem-master-port::system.ruby.l1_cntrl0.sequencer.pio-slave-port            2                       # Packet count per connected master and slave (bytes)
system.iobus.pkt_count_system.ruby.l1_cntrl3.sequencer.mem-master-port::system.ruby.l1_cntrl1.sequencer.pio-slave-port            4                       # Packet count per connected master and slave (bytes)
system.iobus.pkt_count_system.ruby.l1_cntrl3.sequencer.mem-master-port::system.ruby.l1_cntrl3.sequencer.pio-slave-port         1928                       # Packet count per connected master and slave (bytes)
system.iobus.pkt_count_system.ruby.l1_cntrl3.sequencer.mem-master-port::total         1936                       # Packet count per connected master and slave (bytes)
system.iobus.pkt_count::total                    9610                       # Packet count per connected master and slave (bytes)
system.iobus.pkt_size_system.pc.south_bridge.io_apic.int_master::system.ruby.l1_cntrl1.sequencer.pio-slave-port          712                       # Cumulative packet size per connected master and slave (bytes)
system.iobus.pkt_size_system.pc.south_bridge.io_apic.int_master::total          712                       # Cumulative packet size per connected master and slave (bytes)
system.iobus.pkt_size_system.ruby.l1_cntrl0.sequencer.mem-master-port::system.ruby.l1_cntrl0.sequencer.pio-slave-port         3876                       # Cumulative packet size per connected master and slave (bytes)
system.iobus.pkt_size_system.ruby.l1_cntrl0.sequencer.mem-master-port::system.ruby.l1_cntrl1.sequencer.pio-slave-port           12                       # Cumulative packet size per connected master and slave (bytes)
system.iobus.pkt_size_system.ruby.l1_cntrl0.sequencer.mem-master-port::system.ruby.l1_cntrl2.sequencer.pio-slave-port            4                       # Cumulative packet size per connected master and slave (bytes)
system.iobus.pkt_size_system.ruby.l1_cntrl0.sequencer.mem-master-port::system.ruby.l1_cntrl3.sequencer.pio-slave-port            4                       # Cumulative packet size per connected master and slave (bytes)
system.iobus.pkt_size_system.ruby.l1_cntrl0.sequencer.mem-master-port::total         3896                       # Cumulative packet size per connected master and slave (bytes)
system.iobus.pkt_size_system.ruby.l1_cntrl1.sequencer.mem-master-port::system.pc.south_bridge.ide.pio           22                       # Cumulative packet size per connected master and slave (bytes)
system.iobus.pkt_size_system.ruby.l1_cntrl1.sequencer.mem-master-port::system.pc.com_1.pio          704                       # Cumulative packet size per connected master and slave (bytes)
system.iobus.pkt_size_system.ruby.l1_cntrl1.sequencer.mem-master-port::system.ruby.l1_cntrl1.sequencer.pio-slave-port         3888                       # Cumulative packet size per connected master and slave (bytes)
system.iobus.pkt_size_system.ruby.l1_cntrl1.sequencer.mem-master-port::system.ruby.l1_cntrl2.sequencer.pio-slave-port            4                       # Cumulative packet size per connected master and slave (bytes)
system.iobus.pkt_size_system.ruby.l1_cntrl1.sequencer.mem-master-port::system.ruby.l1_cntrl3.sequencer.pio-slave-port            4                       # Cumulative packet size per connected master and slave (bytes)
system.iobus.pkt_size_system.ruby.l1_cntrl1.sequencer.mem-master-port::total         4622                       # Cumulative packet size per connected master and slave (bytes)
system.iobus.pkt_size_system.ruby.l1_cntrl2.sequencer.mem-master-port::system.pc.south_bridge.ide.pio           20                       # Cumulative packet size per connected master and slave (bytes)
system.iobus.pkt_size_system.ruby.l1_cntrl2.sequencer.mem-master-port::system.ruby.l1_cntrl0.sequencer.pio-slave-port            4                       # Cumulative packet size per connected master and slave (bytes)
system.iobus.pkt_size_system.ruby.l1_cntrl2.sequencer.mem-master-port::system.ruby.l1_cntrl1.sequencer.pio-slave-port           12                       # Cumulative packet size per connected master and slave (bytes)
system.iobus.pkt_size_system.ruby.l1_cntrl2.sequencer.mem-master-port::system.ruby.l1_cntrl2.sequencer.pio-slave-port         3868                       # Cumulative packet size per connected master and slave (bytes)
system.iobus.pkt_size_system.ruby.l1_cntrl2.sequencer.mem-master-port::total         3904                       # Cumulative packet size per connected master and slave (bytes)
system.iobus.pkt_size_system.ruby.l1_cntrl3.sequencer.mem-master-port::system.pc.com_1.pio            1                       # Cumulative packet size per connected master and slave (bytes)
system.iobus.pkt_size_system.ruby.l1_cntrl3.sequencer.mem-master-port::system.ruby.l1_cntrl0.sequencer.pio-slave-port            4                       # Cumulative packet size per connected master and slave (bytes)
system.iobus.pkt_size_system.ruby.l1_cntrl3.sequencer.mem-master-port::system.ruby.l1_cntrl1.sequencer.pio-slave-port            8                       # Cumulative packet size per connected master and slave (bytes)
system.iobus.pkt_size_system.ruby.l1_cntrl3.sequencer.mem-master-port::system.ruby.l1_cntrl3.sequencer.pio-slave-port         3856                       # Cumulative packet size per connected master and slave (bytes)
system.iobus.pkt_size_system.ruby.l1_cntrl3.sequencer.mem-master-port::total         3869                       # Cumulative packet size per connected master and slave (bytes)
system.iobus.pkt_size::total                    17003                       # Cumulative packet size per connected master and slave (bytes)
system.iobus.reqLayer2.occupancy                58000                       # Layer occupancy (ticks)
system.iobus.reqLayer2.utilization                0.0                       # Layer utilization (%)
system.iobus.power_state.pwrStateResidencyTicks::UNDEFINED 99275094675001                       # Cumulative time (in ticks) in various power states
system.iobus.reqLayer19.occupancy             2405567                       # Layer occupancy (ticks)
system.iobus.reqLayer19.utilization               0.0                       # Layer utilization (%)
system.iobus.reqLayer17.occupancy             2421544                       # Layer occupancy (ticks)
system.iobus.reqLayer17.utilization               0.0                       # Layer utilization (%)
system.iobus.reqLayer12.occupancy              889500                       # Layer occupancy (ticks)
system.iobus.reqLayer12.utilization               0.0                       # Layer utilization (%)
system.iobus.reqLayer18.occupancy             2788071                       # Layer occupancy (ticks)
system.iobus.reqLayer18.utilization               0.0                       # Layer utilization (%)
system.iobus.respLayer9.occupancy             1453000                       # Layer occupancy (ticks)
system.iobus.respLayer9.utilization               0.0                       # Layer utilization (%)
system.iobus.respLayer5.occupancy             2722000                       # Layer occupancy (ticks)
system.iobus.respLayer5.utilization               0.0                       # Layer utilization (%)
system.iobus.respLayer7.occupancy             1479500                       # Layer occupancy (ticks)
system.iobus.respLayer7.utilization               0.0                       # Layer utilization (%)
system.iobus.respLayer0.occupancy              264498                       # Layer occupancy (ticks)
system.iobus.respLayer0.utilization               0.0                       # Layer utilization (%)
system.iobus.respLayer3.occupancy             1463500                       # Layer occupancy (ticks)
system.iobus.respLayer3.utilization               0.0                       # Layer utilization (%)
system.iobus.reqLayer20.occupancy             2409048                       # Layer occupancy (ticks)
system.iobus.reqLayer20.utilization               0.0                       # Layer utilization (%)

---------- End Simulation Statistics   ----------
