
---------- Begin Simulation Statistics ----------
final_tick                               101721203579001                       # Number of ticks from beginning of simulation (restored from checkpoints and never reset)
host_inst_rate                                7169005                       # Simulator instruction rate (inst/s)
host_mem_usage                                1495032                       # Number of bytes of host memory used
host_op_rate                                  7333668                       # Simulator op (including micro ops) rate (op/s)
host_seconds                                   707.92                       # Real time elapsed on the host
host_tick_rate                               95273325                       # Simulator tick rate (ticks/s)
sim_freq                                 1000000000000                       # Frequency of simulated ticks
sim_insts                                  5075077308                       # Number of instructions simulated
sim_ops                                    5191646702                       # Number of ops (including micro ops) simulated
sim_seconds                                  0.067446                       # Number of seconds simulated
sim_ticks                                 67445847501                       # Number of ticks simulated
system.cpu0.committedInsts                          0                       # Number of instructions committed
system.cpu0.dtb.rdAccesses                          0                       # TLB accesses on read requests
system.cpu0.dtb.rdMisses                            0                       # TLB misses on read requests
system.cpu0.dtb.wrAccesses                          0                       # TLB accesses on write requests
system.cpu0.dtb.wrMisses                            0                       # TLB misses on write requests
system.cpu0.itb.rdAccesses                          0                       # TLB accesses on read requests
system.cpu0.itb.rdMisses                            0                       # TLB misses on read requests
system.cpu0.itb.wrAccesses                          0                       # TLB accesses on write requests
system.cpu0.itb.wrMisses                            0                       # TLB misses on write requests
system.cpu0.kern.inst.arm                           0                       # number of arm instructions executed
system.cpu0.kern.inst.quiesce                       0                       # number of quiesce instructions executed
system.cpu0.numCoalescedMMIO                        0                       # number of coalesced memory mapped IO requests
system.cpu0.numCycles                               0                       # number of cpu cycles simulated
system.cpu0.numExitSignal                           0                       # exits due to signal delivery
system.cpu0.numHalt                                 0                       # number of VM exits due to wait for interrupt instructions
system.cpu0.numHypercalls                           0                       # number of hypercalls
system.cpu0.numIO                                   0                       # number of VM exits due to legacy IO
system.cpu0.numInterrupts                           0                       # number of interrupts delivered
system.cpu0.numMMIO                                 0                       # number of VM exits due to memory mapped IO
system.cpu0.numVMExits                              0                       # total number of KVM exits
system.cpu0.numVMHalfEntries                        0                       # number of KVM entries to finalize pending operations
system.cpu0.numWorkItemsCompleted                   0                       # number of work items this cpu completed
system.cpu0.numWorkItemsStarted                     0                       # number of work items this cpu started
system.cpu1.committedInsts                          0                       # Number of instructions committed
system.cpu1.dtb.rdAccesses                          0                       # TLB accesses on read requests
system.cpu1.dtb.rdMisses                            0                       # TLB misses on read requests
system.cpu1.dtb.wrAccesses                          0                       # TLB accesses on write requests
system.cpu1.dtb.wrMisses                            0                       # TLB misses on write requests
system.cpu1.itb.rdAccesses                          0                       # TLB accesses on read requests
system.cpu1.itb.rdMisses                            0                       # TLB misses on read requests
system.cpu1.itb.wrAccesses                          0                       # TLB accesses on write requests
system.cpu1.itb.wrMisses                            0                       # TLB misses on write requests
system.cpu1.kern.inst.arm                           0                       # number of arm instructions executed
system.cpu1.kern.inst.quiesce                       0                       # number of quiesce instructions executed
system.cpu1.numCoalescedMMIO                        0                       # number of coalesced memory mapped IO requests
system.cpu1.numCycles                               0                       # number of cpu cycles simulated
system.cpu1.numExitSignal                           0                       # exits due to signal delivery
system.cpu1.numHalt                                 0                       # number of VM exits due to wait for interrupt instructions
system.cpu1.numHypercalls                           0                       # number of hypercalls
system.cpu1.numIO                                   0                       # number of VM exits due to legacy IO
system.cpu1.numInterrupts                           0                       # number of interrupts delivered
system.cpu1.numMMIO                                 0                       # number of VM exits due to memory mapped IO
system.cpu1.numVMExits                              0                       # total number of KVM exits
system.cpu1.numVMHalfEntries                        0                       # number of KVM entries to finalize pending operations
system.cpu1.numWorkItemsCompleted                   0                       # number of work items this cpu completed
system.cpu1.numWorkItemsStarted                     0                       # number of work items this cpu started
system.cpu2.committedInsts                          0                       # Number of instructions committed
system.cpu2.dtb.rdAccesses                          0                       # TLB accesses on read requests
system.cpu2.dtb.rdMisses                            0                       # TLB misses on read requests
system.cpu2.dtb.wrAccesses                          0                       # TLB accesses on write requests
system.cpu2.dtb.wrMisses                            0                       # TLB misses on write requests
system.cpu2.itb.rdAccesses                          0                       # TLB accesses on read requests
system.cpu2.itb.rdMisses                            0                       # TLB misses on read requests
system.cpu2.itb.wrAccesses                          0                       # TLB accesses on write requests
system.cpu2.itb.wrMisses                            0                       # TLB misses on write requests
system.cpu2.kern.inst.arm                           0                       # number of arm instructions executed
system.cpu2.kern.inst.quiesce                       0                       # number of quiesce instructions executed
system.cpu2.numCoalescedMMIO                        0                       # number of coalesced memory mapped IO requests
system.cpu2.numCycles                               0                       # number of cpu cycles simulated
system.cpu2.numExitSignal                           0                       # exits due to signal delivery
system.cpu2.numHalt                                 0                       # number of VM exits due to wait for interrupt instructions
system.cpu2.numHypercalls                           0                       # number of hypercalls
system.cpu2.numIO                                   0                       # number of VM exits due to legacy IO
system.cpu2.numInterrupts                           0                       # number of interrupts delivered
system.cpu2.numMMIO                                 0                       # number of VM exits due to memory mapped IO
system.cpu2.numVMExits                              0                       # total number of KVM exits
system.cpu2.numVMHalfEntries                        0                       # number of KVM entries to finalize pending operations
system.cpu2.numWorkItemsCompleted                   0                       # number of work items this cpu completed
system.cpu2.numWorkItemsStarted                     0                       # number of work items this cpu started
system.cpu3.committedInsts                          0                       # Number of instructions committed
system.cpu3.dtb.rdAccesses                          0                       # TLB accesses on read requests
system.cpu3.dtb.rdMisses                            0                       # TLB misses on read requests
system.cpu3.dtb.wrAccesses                          0                       # TLB accesses on write requests
system.cpu3.dtb.wrMisses                            0                       # TLB misses on write requests
system.cpu3.itb.rdAccesses                          0                       # TLB accesses on read requests
system.cpu3.itb.rdMisses                            0                       # TLB misses on read requests
system.cpu3.itb.wrAccesses                          0                       # TLB accesses on write requests
system.cpu3.itb.wrMisses                            0                       # TLB misses on write requests
system.cpu3.kern.inst.arm                           0                       # number of arm instructions executed
system.cpu3.kern.inst.quiesce                       0                       # number of quiesce instructions executed
system.cpu3.numCoalescedMMIO                        0                       # number of coalesced memory mapped IO requests
system.cpu3.numCycles                               0                       # number of cpu cycles simulated
system.cpu3.numExitSignal                           0                       # exits due to signal delivery
system.cpu3.numHalt                                 0                       # number of VM exits due to wait for interrupt instructions
system.cpu3.numHypercalls                           0                       # number of hypercalls
system.cpu3.numIO                                   0                       # number of VM exits due to legacy IO
system.cpu3.numInterrupts                           0                       # number of interrupts delivered
system.cpu3.numMMIO                                 0                       # number of VM exits due to memory mapped IO
system.cpu3.numVMExits                              0                       # total number of KVM exits
system.cpu3.numVMHalfEntries                        0                       # number of KVM entries to finalize pending operations
system.cpu3.numWorkItemsCompleted                   0                       # number of work items this cpu completed
system.cpu3.numWorkItemsStarted                     0                       # number of work items this cpu started
system.pc.south_bridge.ide.disks.dma_read_bytes            0                       # Number of bytes transfered via DMA reads (not PRD).
system.pc.south_bridge.ide.disks.dma_read_full_pages            0                       # Number of full page size DMA reads (not PRD).
system.pc.south_bridge.ide.disks.dma_read_txs            0                       # Number of DMA read transactions (not PRD).
system.pc.south_bridge.ide.disks.dma_write_bytes       180224                       # Number of bytes transfered via DMA writes.
system.pc.south_bridge.ide.disks.dma_write_full_pages           44                       # Number of full page size DMA writes.
system.pc.south_bridge.ide.disks.dma_write_txs           44                       # Number of DMA write transactions.
system.ruby.DMA_Controller.I.allocI_load |           6    100.00%    100.00% |           0      0.00%    100.00%
system.ruby.DMA_Controller.I.allocI_load::total            6                      
system.ruby.DMA_Controller.I.allocI_store |        2816    100.00%    100.00% |           0      0.00%    100.00%
system.ruby.DMA_Controller.I.allocI_store::total         2816                      
system.ruby.DMA_Controller.I.deallocfwdfrom_in |        1798    100.00%    100.00% |           0      0.00%    100.00%
system.ruby.DMA_Controller.I.deallocfwdfrom_in::total         1798                      
system.ruby.DMA_Controller.M.allocTBE    |        1793    100.00%    100.00% |           0      0.00%    100.00%
system.ruby.DMA_Controller.M.allocTBE::total         1793                      
system.ruby.DMA_Controller.M.externalstoreMrespfrom_in |        2816    100.00%    100.00% |           0      0.00%    100.00%
system.ruby.DMA_Controller.M.externalstoreMrespfrom_in::total         2816                      
system.ruby.DMA_Controller.M_evict.Stallmandatory_in |       26444    100.00%    100.00% |           0      0.00%    100.00%
system.ruby.DMA_Controller.M_evict.Stallmandatory_in::total        26444                      
system.ruby.DMA_Controller.S.SloadSEvent |           8    100.00%    100.00% |           0      0.00%    100.00%
system.ruby.DMA_Controller.S.SloadSEvent::total            8                      
system.ruby.DMA_Controller.S.allocTBE    |          18    100.00%    100.00% |           0      0.00%    100.00%
system.ruby.DMA_Controller.S.allocTBE::total           18                      
system.ruby.DMA_Controller.S.deallocTBE  |          12    100.00%    100.00% |           0      0.00%    100.00%
system.ruby.DMA_Controller.S.deallocTBE::total           12                      
system.ruby.DMA_Controller.S.externalloadSrespfrom_in |           6    100.00%    100.00% |           0      0.00%    100.00%
system.ruby.DMA_Controller.S.externalloadSrespfrom_in::total            6                      
system.ruby.DMA_Controller.S_evict.Stallmandatory_in |          39    100.00%    100.00% |           0      0.00%    100.00%
system.ruby.DMA_Controller.S_evict.Stallmandatory_in::total           39                      
system.ruby.DMA_Controller.SloadSEvent   |           8    100.00%    100.00% |           0      0.00%    100.00%
system.ruby.DMA_Controller.SloadSEvent::total            8                      
system.ruby.DMA_Controller.Stallmandatory_in |       26483    100.00%    100.00% |           0      0.00%    100.00%
system.ruby.DMA_Controller.Stallmandatory_in::total        26483                      
system.ruby.DMA_Controller.allocI_load   |           6    100.00%    100.00% |           0      0.00%    100.00%
system.ruby.DMA_Controller.allocI_load::total            6                      
system.ruby.DMA_Controller.allocI_store  |        2816    100.00%    100.00% |           0      0.00%    100.00%
system.ruby.DMA_Controller.allocI_store::total         2816                      
system.ruby.DMA_Controller.allocTBE      |        1811    100.00%    100.00% |           0      0.00%    100.00%
system.ruby.DMA_Controller.allocTBE::total         1811                      
system.ruby.DMA_Controller.deallocTBE    |          12    100.00%    100.00% |           0      0.00%    100.00%
system.ruby.DMA_Controller.deallocTBE::total           12                      
system.ruby.DMA_Controller.deallocfwdfrom_in |        1798    100.00%    100.00% |           0      0.00%    100.00%
system.ruby.DMA_Controller.deallocfwdfrom_in::total         1798                      
system.ruby.DMA_Controller.externalloadSrespfrom_in |           6    100.00%    100.00% |           0      0.00%    100.00%
system.ruby.DMA_Controller.externalloadSrespfrom_in::total            6                      
system.ruby.DMA_Controller.externalstoreMrespfrom_in |        2816    100.00%    100.00% |           0      0.00%    100.00%
system.ruby.DMA_Controller.externalstoreMrespfrom_in::total         2816                      
system.ruby.Directory_Controller.I.allocTBE |       26866     25.87%     25.87% |       25455     24.51%     50.38% |       24500     23.59%     73.98% |       27024     26.02%    100.00%
system.ruby.Directory_Controller.I.allocTBE::total       103845                      
system.ruby.Directory_Controller.I.deallocTBE |       25999     25.90%     25.90% |       24588     24.49%     50.39% |       23642     23.55%     73.94% |       26159     26.06%    100.00%
system.ruby.Directory_Controller.I.deallocTBE::total       100388                      
system.ruby.Directory_Controller.I_GetSL1C1C1_0.Stallreqto_in |           0      0.00%      0.00% |           1     25.00%     25.00% |           1     25.00%     50.00% |           2     50.00%    100.00%
system.ruby.Directory_Controller.I_GetSL1C1C1_0.Stallreqto_in::total            4                      
system.ruby.Directory_Controller.M.allocTBE |        4933     23.75%     23.75% |        5026     24.20%     47.95% |        5086     24.49%     72.44% |        5723     27.56%    100.00%
system.ruby.Directory_Controller.M.allocTBE::total        20768                      
system.ruby.Directory_Controller.M.deallocTBE |        5321     23.82%     23.82% |        5411     24.22%     48.04% |        5486     24.56%     72.60% |        6120     27.40%    100.00%
system.ruby.Directory_Controller.M.deallocTBE::total        22338                      
system.ruby.Directory_Controller.M_GetM.Progress |          77      8.57%      8.57% |          70      7.80%     16.37% |         274     30.51%     46.88% |         477     53.12%    100.00%
system.ruby.Directory_Controller.M_GetM.Progress::total          898                      
system.ruby.Directory_Controller.M_GetS.Progress |         334     30.01%     30.01% |         298     26.77%     56.78% |         240     21.56%     78.35% |         241     21.65%    100.00%
system.ruby.Directory_Controller.M_GetS.Progress::total         1113                      
system.ruby.Directory_Controller.M_GetS.Stallreqto_in |           0      0.00%      0.00% |           7     30.43%     30.43% |           0      0.00%     30.43% |          16     69.57%    100.00%
system.ruby.Directory_Controller.M_GetS.Stallreqto_in::total           23                      
system.ruby.Directory_Controller.M_GetS_WBL1C1C1_0.Stallreqto_in |          21     17.36%     17.36% |          33     27.27%     44.63% |          29     23.97%     68.60% |          38     31.40%    100.00%
system.ruby.Directory_Controller.M_GetS_WBL1C1C1_0.Stallreqto_in::total          121                      
system.ruby.Directory_Controller.Progress |         411     20.44%     20.44% |         368     18.30%     38.74% |         514     25.56%     64.30% |         718     35.70%    100.00%
system.ruby.Directory_Controller.Progress::total         2011                      
system.ruby.Directory_Controller.S.allocTBE |       49509     25.62%     25.62% |       45639     23.62%     49.24% |       48385     25.04%     74.27% |       49715     25.73%    100.00%
system.ruby.Directory_Controller.S.allocTBE::total       193248                      
system.ruby.Directory_Controller.S.deallocTBE |       49988     25.62%     25.62% |       46121     23.64%     49.25% |       48843     25.03%     74.28% |       50183     25.72%    100.00%
system.ruby.Directory_Controller.S.deallocTBE::total       195135                      
system.ruby.Directory_Controller.S_GetM.Stallreqto_in |           1      2.44%      2.44% |           7     17.07%     19.51% |           1      2.44%     21.95% |          32     78.05%    100.00%
system.ruby.Directory_Controller.S_GetM.Stallreqto_in::total           41                      
system.ruby.Directory_Controller.S_GetM.allocTBE |         308     29.42%     29.42% |         270     25.79%     55.21% |         247     23.59%     78.80% |         222     21.20%    100.00%
system.ruby.Directory_Controller.S_GetM.allocTBE::total         1047                      
system.ruby.Directory_Controller.S_GetM.deallocTBE |         308     29.42%     29.42% |         270     25.79%     55.21% |         247     23.59%     78.80% |         222     21.20%    100.00%
system.ruby.Directory_Controller.S_GetM.deallocTBE::total         1047                      
system.ruby.Directory_Controller.S_GetML1C1C1_2.Stallreqto_in |           0      0.00%      0.00% |           4     50.00%     50.00% |           0      0.00%     50.00% |           4     50.00%    100.00%
system.ruby.Directory_Controller.S_GetML1C1C1_2.Stallreqto_in::total            8                      
system.ruby.Directory_Controller.S_GetSL1C1C1_0.Stallreqto_in |           3     15.79%     15.79% |           2     10.53%     26.32% |           4     21.05%     47.37% |          10     52.63%    100.00%
system.ruby.Directory_Controller.S_GetSL1C1C1_0.Stallreqto_in::total           19                      
system.ruby.Directory_Controller.Stallreqto_in |          25     11.57%     11.57% |          54     25.00%     36.57% |          35     16.20%     52.78% |         102     47.22%    100.00%
system.ruby.Directory_Controller.Stallreqto_in::total          216                      
system.ruby.Directory_Controller.allocTBE |       81616     25.59%     25.59% |       76390     23.95%     49.55% |       78218     24.53%     74.07% |       82684     25.93%    100.00%
system.ruby.Directory_Controller.allocTBE::total       318908                      
system.ruby.Directory_Controller.deallocTBE |       81616     25.59%     25.59% |       76390     23.95%     49.55% |       78218     24.53%     74.07% |       82684     25.93%    100.00%
system.ruby.Directory_Controller.deallocTBE::total       318908                      
system.ruby.IFETCH.hit_latency_hist_seqr::bucket_size            1                      
system.ruby.IFETCH.hit_latency_hist_seqr::max_bucket            9                      
system.ruby.IFETCH.hit_latency_hist_seqr::samples    207706552                      
system.ruby.IFETCH.hit_latency_hist_seqr |   207706552    100.00%    100.00% |           0      0.00%    100.00% |           0      0.00%    100.00% |           0      0.00%    100.00% |           0      0.00%    100.00% |           0      0.00%    100.00% |           0      0.00%    100.00% |           0      0.00%    100.00% |           0      0.00%    100.00% |           0      0.00%    100.00%
system.ruby.IFETCH.hit_latency_hist_seqr::total    207706552                      
system.ruby.IFETCH.latency_hist_seqr::bucket_size            1                      
system.ruby.IFETCH.latency_hist_seqr::max_bucket            9                      
system.ruby.IFETCH.latency_hist_seqr::samples    207765071                      
system.ruby.IFETCH.latency_hist_seqr     |   207765071    100.00%    100.00% |           0      0.00%    100.00% |           0      0.00%    100.00% |           0      0.00%    100.00% |           0      0.00%    100.00% |           0      0.00%    100.00% |           0      0.00%    100.00% |           0      0.00%    100.00% |           0      0.00%    100.00% |           0      0.00%    100.00%
system.ruby.IFETCH.latency_hist_seqr::total    207765071                      
system.ruby.IFETCH.miss_latency_hist_seqr::bucket_size            1                      
system.ruby.IFETCH.miss_latency_hist_seqr::max_bucket            9                      
system.ruby.IFETCH.miss_latency_hist_seqr::samples        58519                      
system.ruby.IFETCH.miss_latency_hist_seqr |       58519    100.00%    100.00% |           0      0.00%    100.00% |           0      0.00%    100.00% |           0      0.00%    100.00% |           0      0.00%    100.00% |           0      0.00%    100.00% |           0      0.00%    100.00% |           0      0.00%    100.00% |           0      0.00%    100.00% |           0      0.00%    100.00%
system.ruby.IFETCH.miss_latency_hist_seqr::total        58519                      
system.ruby.L1Cache_Controller.I.allocI_load |       53896     37.79%     37.79% |       23135     16.22%     54.02% |       35848     25.14%     79.15% |       29730     20.85%    100.00%
system.ruby.L1Cache_Controller.I.allocI_load::total       142609                      
system.ruby.L1Cache_Controller.I.allocI_store |        6710     44.16%     44.16% |        3170     20.86%     65.03% |        3322     21.86%     86.89% |        1992     13.11%    100.00%
system.ruby.L1Cache_Controller.I.allocI_store::total        15194                      
system.ruby.L1Cache_Controller.I.deallocfwdfrom_in |       59593     38.75%     38.75% |       25310     16.46%     55.21% |       38157     24.81%     80.02% |       30719     19.98%    100.00%
system.ruby.L1Cache_Controller.I.deallocfwdfrom_in::total       153779                      
system.ruby.L1Cache_Controller.I_store.Progress |         394     92.49%     92.49% |           9      2.11%     94.60% |          19      4.46%     99.06% |           4      0.94%    100.00%
system.ruby.L1Cache_Controller.I_store.Progress::total          426                      
system.ruby.L1Cache_Controller.I_store.Stallfwdfrom_in |           0      0.00%      0.00% |           5     41.67%     41.67% |           3     25.00%     66.67% |           4     33.33%    100.00%
system.ruby.L1Cache_Controller.I_store.Stallfwdfrom_in::total           12                      
system.ruby.L1Cache_Controller.M.MloadMEvent |     2387773     25.08%     25.08% |     2378658     24.98%     50.06% |     2375137     24.95%     75.01% |     2379813     24.99%    100.00%
system.ruby.L1Cache_Controller.M.MloadMEvent::total      9521381                      
system.ruby.L1Cache_Controller.M.MstoreMEvent |     2143142     25.39%     25.39% |     2098236     24.86%     50.25% |     2097351     24.85%     75.10% |     2102093     24.90%    100.00%
system.ruby.L1Cache_Controller.M.MstoreMEvent::total      8440822                      
system.ruby.L1Cache_Controller.M.allocTBE |        8047     42.41%     42.41% |        3916     20.64%     63.05% |        4377     23.07%     86.11% |        2635     13.89%    100.00%
system.ruby.L1Cache_Controller.M.allocTBE::total        18975                      
system.ruby.L1Cache_Controller.M.externalstoreMrespfrom_in |        8216     42.09%     42.09% |        4032     20.65%     62.74% |        4513     23.12%     85.86% |        2761     14.14%    100.00%
system.ruby.L1Cache_Controller.M.externalstoreMrespfrom_in::total        19522                      
system.ruby.L1Cache_Controller.M_evict.Stallmandatory_in |          43     44.33%     44.33% |           9      9.28%     53.61% |           2      2.06%     55.67% |          43     44.33%    100.00%
system.ruby.L1Cache_Controller.M_evict.Stallmandatory_in::total           97                      
system.ruby.L1Cache_Controller.MloadMEvent |     2387773     25.08%     25.08% |     2378658     24.98%     50.06% |     2375137     24.95%     75.01% |     2379813     24.99%    100.00%
system.ruby.L1Cache_Controller.MloadMEvent::total      9521381                      
system.ruby.L1Cache_Controller.MstoreMEvent |     2143142     25.39%     25.39% |     2098236     24.86%     50.25% |     2097351     24.85%     75.10% |     2102093     24.90%    100.00%
system.ruby.L1Cache_Controller.MstoreMEvent::total      8440822                      
system.ruby.L1Cache_Controller.Progress  |        2619     42.90%     42.90% |        1126     18.44%     61.34% |        1413     23.14%     84.49% |         947     15.51%    100.00%
system.ruby.L1Cache_Controller.Progress::total         6105                      
system.ruby.L1Cache_Controller.S.SloadSEvent |    59189655     24.99%     24.99% |    59180693     24.98%     49.97% |    59301137     25.03%     75.00% |    59219389     25.00%    100.00%
system.ruby.L1Cache_Controller.S.SloadSEvent::total    236890874                      
system.ruby.L1Cache_Controller.S.allocTBE |       53509     38.16%     38.16% |       22438     16.00%     54.16% |       35155     25.07%     79.23% |       29131     20.77%    100.00%
system.ruby.L1Cache_Controller.S.allocTBE::total       140233                      
system.ruby.L1Cache_Controller.S.deallocTBE |         457     41.51%     41.51% |         182     16.53%     58.04% |         184     16.71%     74.75% |         278     25.25%    100.00%
system.ruby.L1Cache_Controller.S.deallocTBE::total         1101                      
system.ruby.L1Cache_Controller.S.externalloadSrespfrom_in |       53896     37.79%     37.79% |       23135     16.22%     54.02% |       35848     25.14%     79.15% |       29730     20.85%    100.00%
system.ruby.L1Cache_Controller.S.externalloadSrespfrom_in::total       142609                      
system.ruby.L1Cache_Controller.S_evict.Stallmandatory_in |          32     17.68%     17.68% |          54     29.83%     47.51% |          40     22.10%     69.61% |          55     30.39%    100.00%
system.ruby.L1Cache_Controller.S_evict.Stallmandatory_in::total          181                      
system.ruby.L1Cache_Controller.S_store.Progress |        2225     39.18%     39.18% |        1117     19.67%     58.85% |        1394     24.55%     83.39% |         943     16.61%    100.00%
system.ruby.L1Cache_Controller.S_store.Progress::total         5679                      
system.ruby.L1Cache_Controller.SloadSEvent |    59189655     24.99%     24.99% |    59180693     24.98%     49.97% |    59301137     25.03%     75.00% |    59219389     25.00%    100.00%
system.ruby.L1Cache_Controller.SloadSEvent::total    236890874                      
system.ruby.L1Cache_Controller.Stallfwdfrom_in |           0      0.00%      0.00% |           5     41.67%     41.67% |           3     25.00%     66.67% |           4     33.33%    100.00%
system.ruby.L1Cache_Controller.Stallfwdfrom_in::total           12                      
system.ruby.L1Cache_Controller.Stallmandatory_in |          75     26.98%     26.98% |          63     22.66%     49.64% |          42     15.11%     64.75% |          98     35.25%    100.00%
system.ruby.L1Cache_Controller.Stallmandatory_in::total          278                      
system.ruby.L1Cache_Controller.allocI_load |       53896     37.79%     37.79% |       23135     16.22%     54.02% |       35848     25.14%     79.15% |       29730     20.85%    100.00%
system.ruby.L1Cache_Controller.allocI_load::total       142609                      
system.ruby.L1Cache_Controller.allocI_store |        6710     44.16%     44.16% |        3170     20.86%     65.03% |        3322     21.86%     86.89% |        1992     13.11%    100.00%
system.ruby.L1Cache_Controller.allocI_store::total        15194                      
system.ruby.L1Cache_Controller.allocTBE  |       61556     38.66%     38.66% |       26354     16.55%     55.22% |       39532     24.83%     80.05% |       31766     19.95%    100.00%
system.ruby.L1Cache_Controller.allocTBE::total       159208                      
system.ruby.L1Cache_Controller.deallocTBE |         457     41.51%     41.51% |         182     16.53%     58.04% |         184     16.71%     74.75% |         278     25.25%    100.00%
system.ruby.L1Cache_Controller.deallocTBE::total         1101                      
system.ruby.L1Cache_Controller.deallocfwdfrom_in |       59593     38.75%     38.75% |       25310     16.46%     55.21% |       38157     24.81%     80.02% |       30719     19.98%    100.00%
system.ruby.L1Cache_Controller.deallocfwdfrom_in::total       153779                      
system.ruby.L1Cache_Controller.externalloadSrespfrom_in |       53896     37.79%     37.79% |       23135     16.22%     54.02% |       35848     25.14%     79.15% |       29730     20.85%    100.00%
system.ruby.L1Cache_Controller.externalloadSrespfrom_in::total       142609                      
system.ruby.L1Cache_Controller.externalstoreMrespfrom_in |        8216     42.09%     42.09% |        4032     20.65%     62.74% |        4513     23.12%     85.86% |        2761     14.14%    100.00%
system.ruby.L1Cache_Controller.externalstoreMrespfrom_in::total        19522                      
system.ruby.LD.hit_latency_hist_seqr::bucket_size            1                      
system.ruby.LD.hit_latency_hist_seqr::max_bucket            9                      
system.ruby.LD.hit_latency_hist_seqr::samples     38705703                      
system.ruby.LD.hit_latency_hist_seqr     |    38705703    100.00%    100.00% |           0      0.00%    100.00% |           0      0.00%    100.00% |           0      0.00%    100.00% |           0      0.00%    100.00% |           0      0.00%    100.00% |           0      0.00%    100.00% |           0      0.00%    100.00% |           0      0.00%    100.00% |           0      0.00%    100.00%
system.ruby.LD.hit_latency_hist_seqr::total     38705703                      
system.ruby.LD.latency_hist_seqr::bucket_size            1                      
system.ruby.LD.latency_hist_seqr::max_bucket            9                      
system.ruby.LD.latency_hist_seqr::samples     38789793                      
system.ruby.LD.latency_hist_seqr         |    38789793    100.00%    100.00% |           0      0.00%    100.00% |           0      0.00%    100.00% |           0      0.00%    100.00% |           0      0.00%    100.00% |           0      0.00%    100.00% |           0      0.00%    100.00% |           0      0.00%    100.00% |           0      0.00%    100.00% |           0      0.00%    100.00%
system.ruby.LD.latency_hist_seqr::total      38789793                      
system.ruby.LD.miss_latency_hist_seqr::bucket_size            1                      
system.ruby.LD.miss_latency_hist_seqr::max_bucket            9                      
system.ruby.LD.miss_latency_hist_seqr::samples        84090                      
system.ruby.LD.miss_latency_hist_seqr    |       84090    100.00%    100.00% |           0      0.00%    100.00% |           0      0.00%    100.00% |           0      0.00%    100.00% |           0      0.00%    100.00% |           0      0.00%    100.00% |           0      0.00%    100.00% |           0      0.00%    100.00% |           0      0.00%    100.00% |           0      0.00%    100.00%
system.ruby.LD.miss_latency_hist_seqr::total        84090                      
system.ruby.Locked_RMW_Read.hit_latency_hist_seqr::bucket_size            1                      
system.ruby.Locked_RMW_Read.hit_latency_hist_seqr::max_bucket            9                      
system.ruby.Locked_RMW_Read.hit_latency_hist_seqr::samples         3990                      
system.ruby.Locked_RMW_Read.hit_latency_hist_seqr |        3990    100.00%    100.00% |           0      0.00%    100.00% |           0      0.00%    100.00% |           0      0.00%    100.00% |           0      0.00%    100.00% |           0      0.00%    100.00% |           0      0.00%    100.00% |           0      0.00%    100.00% |           0      0.00%    100.00% |           0      0.00%    100.00%
system.ruby.Locked_RMW_Read.hit_latency_hist_seqr::total         3990                      
system.ruby.Locked_RMW_Read.latency_hist_seqr::bucket_size            1                      
system.ruby.Locked_RMW_Read.latency_hist_seqr::max_bucket            9                      
system.ruby.Locked_RMW_Read.latency_hist_seqr::samples         5323                      
system.ruby.Locked_RMW_Read.latency_hist_seqr |        5323    100.00%    100.00% |           0      0.00%    100.00% |           0      0.00%    100.00% |           0      0.00%    100.00% |           0      0.00%    100.00% |           0      0.00%    100.00% |           0      0.00%    100.00% |           0      0.00%    100.00% |           0      0.00%    100.00% |           0      0.00%    100.00%
system.ruby.Locked_RMW_Read.latency_hist_seqr::total         5323                      
system.ruby.Locked_RMW_Read.miss_latency_hist_seqr::bucket_size            1                      
system.ruby.Locked_RMW_Read.miss_latency_hist_seqr::max_bucket            9                      
system.ruby.Locked_RMW_Read.miss_latency_hist_seqr::samples         1333                      
system.ruby.Locked_RMW_Read.miss_latency_hist_seqr |        1333    100.00%    100.00% |           0      0.00%    100.00% |           0      0.00%    100.00% |           0      0.00%    100.00% |           0      0.00%    100.00% |           0      0.00%    100.00% |           0      0.00%    100.00% |           0      0.00%    100.00% |           0      0.00%    100.00% |           0      0.00%    100.00%
system.ruby.Locked_RMW_Read.miss_latency_hist_seqr::total         1333                      
system.ruby.Locked_RMW_Write.hit_latency_hist_seqr::bucket_size            1                      
system.ruby.Locked_RMW_Write.hit_latency_hist_seqr::max_bucket            9                      
system.ruby.Locked_RMW_Write.hit_latency_hist_seqr::samples         5323                      
system.ruby.Locked_RMW_Write.hit_latency_hist_seqr |        5323    100.00%    100.00% |           0      0.00%    100.00% |           0      0.00%    100.00% |           0      0.00%    100.00% |           0      0.00%    100.00% |           0      0.00%    100.00% |           0      0.00%    100.00% |           0      0.00%    100.00% |           0      0.00%    100.00% |           0      0.00%    100.00%
system.ruby.Locked_RMW_Write.hit_latency_hist_seqr::total         5323                      
system.ruby.Locked_RMW_Write.latency_hist_seqr::bucket_size            1                      
system.ruby.Locked_RMW_Write.latency_hist_seqr::max_bucket            9                      
system.ruby.Locked_RMW_Write.latency_hist_seqr::samples         5323                      
system.ruby.Locked_RMW_Write.latency_hist_seqr |        5323    100.00%    100.00% |           0      0.00%    100.00% |           0      0.00%    100.00% |           0      0.00%    100.00% |           0      0.00%    100.00% |           0      0.00%    100.00% |           0      0.00%    100.00% |           0      0.00%    100.00% |           0      0.00%    100.00% |           0      0.00%    100.00%
system.ruby.Locked_RMW_Write.latency_hist_seqr::total         5323                      
system.ruby.RMW_Read.hit_latency_hist_seqr::bucket_size            1                      
system.ruby.RMW_Read.hit_latency_hist_seqr::max_bucket            9                      
system.ruby.RMW_Read.hit_latency_hist_seqr::samples        13825                      
system.ruby.RMW_Read.hit_latency_hist_seqr |       13825    100.00%    100.00% |           0      0.00%    100.00% |           0      0.00%    100.00% |           0      0.00%    100.00% |           0      0.00%    100.00% |           0      0.00%    100.00% |           0      0.00%    100.00% |           0      0.00%    100.00% |           0      0.00%    100.00% |           0      0.00%    100.00%
system.ruby.RMW_Read.hit_latency_hist_seqr::total        13825                      
system.ruby.RMW_Read.latency_hist_seqr::bucket_size            1                      
system.ruby.RMW_Read.latency_hist_seqr::max_bucket            9                      
system.ruby.RMW_Read.latency_hist_seqr::samples        15833                      
system.ruby.RMW_Read.latency_hist_seqr   |       15833    100.00%    100.00% |           0      0.00%    100.00% |           0      0.00%    100.00% |           0      0.00%    100.00% |           0      0.00%    100.00% |           0      0.00%    100.00% |           0      0.00%    100.00% |           0      0.00%    100.00% |           0      0.00%    100.00% |           0      0.00%    100.00%
system.ruby.RMW_Read.latency_hist_seqr::total        15833                      
system.ruby.RMW_Read.miss_latency_hist_seqr::bucket_size            1                      
system.ruby.RMW_Read.miss_latency_hist_seqr::max_bucket            9                      
system.ruby.RMW_Read.miss_latency_hist_seqr::samples         2008                      
system.ruby.RMW_Read.miss_latency_hist_seqr |        2008    100.00%    100.00% |           0      0.00%    100.00% |           0      0.00%    100.00% |           0      0.00%    100.00% |           0      0.00%    100.00% |           0      0.00%    100.00% |           0      0.00%    100.00% |           0      0.00%    100.00% |           0      0.00%    100.00% |           0      0.00%    100.00%
system.ruby.RMW_Read.miss_latency_hist_seqr::total         2008                      
system.ruby.ST.hit_latency_hist_seqr::bucket_size            1                      
system.ruby.ST.hit_latency_hist_seqr::max_bucket            9                      
system.ruby.ST.hit_latency_hist_seqr::samples      8417684                      
system.ruby.ST.hit_latency_hist_seqr     |     8417684    100.00%    100.00% |           0      0.00%    100.00% |           0      0.00%    100.00% |           0      0.00%    100.00% |           0      0.00%    100.00% |           0      0.00%    100.00% |           0      0.00%    100.00% |           0      0.00%    100.00% |           0      0.00%    100.00% |           0      0.00%    100.00%
system.ruby.ST.hit_latency_hist_seqr::total      8417684                      
system.ruby.ST.latency_hist_seqr::bucket_size            1                      
system.ruby.ST.latency_hist_seqr::max_bucket            9                      
system.ruby.ST.latency_hist_seqr::samples      8433865                      
system.ruby.ST.latency_hist_seqr         |     8433865    100.00%    100.00% |           0      0.00%    100.00% |           0      0.00%    100.00% |           0      0.00%    100.00% |           0      0.00%    100.00% |           0      0.00%    100.00% |           0      0.00%    100.00% |           0      0.00%    100.00% |           0      0.00%    100.00% |           0      0.00%    100.00%
system.ruby.ST.latency_hist_seqr::total       8433865                      
system.ruby.ST.miss_latency_hist_seqr::bucket_size            1                      
system.ruby.ST.miss_latency_hist_seqr::max_bucket            9                      
system.ruby.ST.miss_latency_hist_seqr::samples        16181                      
system.ruby.ST.miss_latency_hist_seqr    |       16181    100.00%    100.00% |           0      0.00%    100.00% |           0      0.00%    100.00% |           0      0.00%    100.00% |           0      0.00%    100.00% |           0      0.00%    100.00% |           0      0.00%    100.00% |           0      0.00%    100.00% |           0      0.00%    100.00% |           0      0.00%    100.00%
system.ruby.ST.miss_latency_hist_seqr::total        16181                      
system.ruby.dir_cntrl0.fwdFrom.avg_buf_msgs     0.001770                       # Average number of messages in buffer
system.ruby.dir_cntrl0.fwdFrom.avg_stall_time  2999.469508                       # Average number of cycles messages are stalled in this MB
system.ruby.dir_cntrl0.reqTo.avg_buf_msgs     0.000605                       # Average number of messages in buffer
system.ruby.dir_cntrl0.reqTo.avg_stall_time  4300.204197                       # Average number of cycles messages are stalled in this MB
system.ruby.dir_cntrl0.requestToMemory.avg_buf_msgs     0.000346                       # Average number of messages in buffer
system.ruby.dir_cntrl0.requestToMemory.avg_stall_time   499.996434                       # Average number of cycles messages are stalled in this MB
system.ruby.dir_cntrl0.respFrom.avg_buf_msgs     0.001945                       # Average number of messages in buffer
system.ruby.dir_cntrl0.respFrom.avg_stall_time  3003.494218                       # Average number of cycles messages are stalled in this MB
system.ruby.dir_cntrl0.respTo.avg_buf_msgs     0.000005                       # Average number of messages in buffer
system.ruby.dir_cntrl0.respTo.avg_stall_time 10983.648856                       # Average number of cycles messages are stalled in this MB
system.ruby.dir_cntrl0.responseFromMemory.avg_buf_msgs     0.000346                       # Average number of messages in buffer
system.ruby.dir_cntrl0.responseFromMemory.avg_stall_time   499.995811                       # Average number of cycles messages are stalled in this MB
system.ruby.dir_cntrl1.fwdFrom.avg_buf_msgs     0.001658                       # Average number of messages in buffer
system.ruby.dir_cntrl1.fwdFrom.avg_stall_time  2999.463636                       # Average number of cycles messages are stalled in this MB
system.ruby.dir_cntrl1.reqTo.avg_buf_msgs     0.000568                       # Average number of messages in buffer
system.ruby.dir_cntrl1.reqTo.avg_stall_time  4486.810356                       # Average number of cycles messages are stalled in this MB
system.ruby.dir_cntrl1.requestToMemory.avg_buf_msgs     0.000327                       # Average number of messages in buffer
system.ruby.dir_cntrl1.requestToMemory.avg_stall_time   499.999162                       # Average number of cycles messages are stalled in this MB
system.ruby.dir_cntrl1.respFrom.avg_buf_msgs     0.001835                       # Average number of messages in buffer
system.ruby.dir_cntrl1.respFrom.avg_stall_time  3003.765080                       # Average number of cycles messages are stalled in this MB
system.ruby.dir_cntrl1.respTo.avg_buf_msgs     0.000005                       # Average number of messages in buffer
system.ruby.dir_cntrl1.respTo.avg_stall_time 10640.442608                       # Average number of cycles messages are stalled in this MB
system.ruby.dir_cntrl1.responseFromMemory.avg_buf_msgs     0.000327                       # Average number of messages in buffer
system.ruby.dir_cntrl1.responseFromMemory.avg_stall_time   499.998540                       # Average number of cycles messages are stalled in this MB
system.ruby.dir_cntrl2.fwdFrom.avg_buf_msgs     0.001700                       # Average number of messages in buffer
system.ruby.dir_cntrl2.fwdFrom.avg_stall_time  2999.066384                       # Average number of cycles messages are stalled in this MB
system.ruby.dir_cntrl2.reqTo.avg_buf_msgs     0.000581                       # Average number of messages in buffer
system.ruby.dir_cntrl2.reqTo.avg_stall_time  4339.585684                       # Average number of cycles messages are stalled in this MB
system.ruby.dir_cntrl2.requestToMemory.avg_buf_msgs     0.000332                       # Average number of messages in buffer
system.ruby.dir_cntrl2.requestToMemory.avg_stall_time   499.997213                       # Average number of cycles messages are stalled in this MB
system.ruby.dir_cntrl2.respFrom.avg_buf_msgs     0.002041                       # Average number of messages in buffer
system.ruby.dir_cntrl2.respFrom.avg_stall_time  3008.096710                       # Average number of cycles messages are stalled in this MB
system.ruby.dir_cntrl2.respTo.avg_buf_msgs     0.000006                       # Average number of messages in buffer
system.ruby.dir_cntrl2.respTo.avg_stall_time  6927.491092                       # Average number of cycles messages are stalled in this MB
system.ruby.dir_cntrl2.responseFromMemory.avg_buf_msgs     0.000332                       # Average number of messages in buffer
system.ruby.dir_cntrl2.responseFromMemory.avg_stall_time   499.996590                       # Average number of cycles messages are stalled in this MB
system.ruby.dir_cntrl3.fwdFrom.avg_buf_msgs     0.001809                       # Average number of messages in buffer
system.ruby.dir_cntrl3.fwdFrom.avg_stall_time  2999.233808                       # Average number of cycles messages are stalled in this MB
system.ruby.dir_cntrl3.reqTo.avg_buf_msgs     0.000619                       # Average number of messages in buffer
system.ruby.dir_cntrl3.reqTo.avg_stall_time  4783.948044                       # Average number of cycles messages are stalled in this MB
system.ruby.dir_cntrl3.requestToMemory.avg_buf_msgs     0.000350                       # Average number of messages in buffer
system.ruby.dir_cntrl3.requestToMemory.avg_stall_time   499.999959                       # Average number of cycles messages are stalled in this MB
system.ruby.dir_cntrl3.respFrom.avg_buf_msgs     0.002177                       # Average number of messages in buffer
system.ruby.dir_cntrl3.respFrom.avg_stall_time  3009.022194                       # Average number of cycles messages are stalled in this MB
system.ruby.dir_cntrl3.respTo.avg_buf_msgs     0.000007                       # Average number of messages in buffer
system.ruby.dir_cntrl3.respTo.avg_stall_time  5920.415886                       # Average number of cycles messages are stalled in this MB
system.ruby.dir_cntrl3.responseFromMemory.avg_buf_msgs     0.000351                       # Average number of messages in buffer
system.ruby.dir_cntrl3.responseFromMemory.avg_stall_time   499.999333                       # Average number of cycles messages are stalled in this MB
system.ruby.dma_cntrl0.cache.demand_accesses            0                       # Number of cache demand accesses
system.ruby.dma_cntrl0.cache.demand_hits            0                       # Number of cache demand hits
system.ruby.dma_cntrl0.cache.demand_misses            0                       # Number of cache demand misses
system.ruby.dma_cntrl0.fully_busy_cycles         4808                       # cycles for which number of transistions == max transitions
system.ruby.dma_cntrl0.fwdFrom.avg_buf_msgs     0.000013                       # Average number of messages in buffer
system.ruby.dma_cntrl0.fwdFrom.avg_stall_time  6950.539012                       # Average number of cycles messages are stalled in this MB
system.ruby.dma_cntrl0.mandatoryQueue.avg_buf_msgs     0.002417                       # Average number of messages in buffer
system.ruby.dma_cntrl0.mandatoryQueue.avg_stall_time 162372.784818                       # Average number of cycles messages are stalled in this MB
system.ruby.dma_cntrl0.reqTo.avg_buf_msgs     0.003856                       # Average number of messages in buffer
system.ruby.dma_cntrl0.reqTo.avg_stall_time 14723.810265                       # Average number of cycles messages are stalled in this MB
system.ruby.dma_cntrl0.respFrom.avg_buf_msgs     0.000021                       # Average number of messages in buffer
system.ruby.dma_cntrl0.respFrom.avg_stall_time 99623.142752                       # Average number of cycles messages are stalled in this MB
system.ruby.dma_cntrl0.respTo.avg_buf_msgs     0.000000                       # Average number of messages in buffer
system.ruby.dma_cntrl0.respTo.avg_stall_time   531.830299                       # Average number of cycles messages are stalled in this MB
system.ruby.hit_latency_hist_seqr::bucket_size            1                      
system.ruby.hit_latency_hist_seqr::max_bucket            9                      
system.ruby.hit_latency_hist_seqr::samples    254853077                      
system.ruby.hit_latency_hist_seqr        |   254853077    100.00%    100.00% |           0      0.00%    100.00% |           0      0.00%    100.00% |           0      0.00%    100.00% |           0      0.00%    100.00% |           0      0.00%    100.00% |           0      0.00%    100.00% |           0      0.00%    100.00% |           0      0.00%    100.00% |           0      0.00%    100.00%
system.ruby.hit_latency_hist_seqr::total    254853077                      
system.ruby.io_controller.cache.demand_accesses            0                       # Number of cache demand accesses
system.ruby.io_controller.cache.demand_hits            0                       # Number of cache demand hits
system.ruby.io_controller.cache.demand_misses            0                       # Number of cache demand misses
system.ruby.l1_cntrl0.cache.demand_accesses            0                       # Number of cache demand accesses
system.ruby.l1_cntrl0.cache.demand_hits             0                       # Number of cache demand hits
system.ruby.l1_cntrl0.cache.demand_misses            0                       # Number of cache demand misses
system.ruby.l1_cntrl0.fwdFrom.avg_buf_msgs     0.000445                       # Average number of messages in buffer
system.ruby.l1_cntrl0.fwdFrom.avg_stall_time  6503.645332                       # Average number of cycles messages are stalled in this MB
system.ruby.l1_cntrl0.mandatoryQueue.avg_buf_msgs     0.483292                       # Average number of messages in buffer
system.ruby.l1_cntrl0.mandatoryQueue.avg_stall_time   997.175519                       # Average number of cycles messages are stalled in this MB
system.ruby.l1_cntrl0.reqTo.avg_buf_msgs     0.000900                       # Average number of messages in buffer
system.ruby.l1_cntrl0.reqTo.avg_stall_time   499.999989                       # Average number of cycles messages are stalled in this MB
system.ruby.l1_cntrl0.respFrom.avg_buf_msgs     0.000469                       # Average number of messages in buffer
system.ruby.l1_cntrl0.respFrom.avg_stall_time 16534.576117                       # Average number of cycles messages are stalled in this MB
system.ruby.l1_cntrl0.respTo.avg_buf_msgs     0.000018                       # Average number of messages in buffer
system.ruby.l1_cntrl0.respTo.avg_stall_time   903.348227                       # Average number of cycles messages are stalled in this MB
system.ruby.l1_cntrl1.cache.demand_accesses            0                       # Number of cache demand accesses
system.ruby.l1_cntrl1.cache.demand_hits             0                       # Number of cache demand hits
system.ruby.l1_cntrl1.cache.demand_misses            0                       # Number of cache demand misses
system.ruby.l1_cntrl1.fwdFrom.avg_buf_msgs     0.000189                       # Average number of messages in buffer
system.ruby.l1_cntrl1.fwdFrom.avg_stall_time  6602.000283                       # Average number of cycles messages are stalled in this MB
system.ruby.l1_cntrl1.mandatoryQueue.avg_buf_msgs     0.476552                       # Average number of messages in buffer
system.ruby.l1_cntrl1.mandatoryQueue.avg_stall_time   701.057952                       # Average number of cycles messages are stalled in this MB
system.ruby.l1_cntrl1.reqTo.avg_buf_msgs     0.000383                       # Average number of messages in buffer
system.ruby.l1_cntrl1.reqTo.avg_stall_time   498.403567                       # Average number of cycles messages are stalled in this MB
system.ruby.l1_cntrl1.respFrom.avg_buf_msgs     0.000203                       # Average number of messages in buffer
system.ruby.l1_cntrl1.respFrom.avg_stall_time 16348.510244                       # Average number of cycles messages are stalled in this MB
system.ruby.l1_cntrl1.respTo.avg_buf_msgs     0.000016                       # Average number of messages in buffer
system.ruby.l1_cntrl1.respTo.avg_stall_time   856.400440                       # Average number of cycles messages are stalled in this MB
system.ruby.l1_cntrl2.cache.demand_accesses            0                       # Number of cache demand accesses
system.ruby.l1_cntrl2.cache.demand_hits             0                       # Number of cache demand hits
system.ruby.l1_cntrl2.cache.demand_misses            0                       # Number of cache demand misses
system.ruby.l1_cntrl2.fwdFrom.avg_buf_msgs     0.000284                       # Average number of messages in buffer
system.ruby.l1_cntrl2.fwdFrom.avg_stall_time  6483.859125                       # Average number of cycles messages are stalled in this MB
system.ruby.l1_cntrl2.mandatoryQueue.avg_buf_msgs     0.479590                       # Average number of messages in buffer
system.ruby.l1_cntrl2.mandatoryQueue.avg_stall_time   799.731262                       # Average number of cycles messages are stalled in this MB
system.ruby.l1_cntrl2.reqTo.avg_buf_msgs     0.000576                       # Average number of messages in buffer
system.ruby.l1_cntrl2.reqTo.avg_stall_time   499.999989                       # Average number of cycles messages are stalled in this MB
system.ruby.l1_cntrl2.respFrom.avg_buf_msgs     0.000301                       # Average number of messages in buffer
system.ruby.l1_cntrl2.respFrom.avg_stall_time 16392.750736                       # Average number of cycles messages are stalled in this MB
system.ruby.l1_cntrl2.respTo.avg_buf_msgs     0.000016                       # Average number of messages in buffer
system.ruby.l1_cntrl2.respTo.avg_stall_time   832.367942                       # Average number of cycles messages are stalled in this MB
system.ruby.l1_cntrl3.cache.demand_accesses            0                       # Number of cache demand accesses
system.ruby.l1_cntrl3.cache.demand_hits             0                       # Number of cache demand hits
system.ruby.l1_cntrl3.cache.demand_misses            0                       # Number of cache demand misses
system.ruby.l1_cntrl3.fully_busy_cycles             1                       # cycles for which number of transistions == max transitions
system.ruby.l1_cntrl3.fwdFrom.avg_buf_msgs     0.000230                       # Average number of messages in buffer
system.ruby.l1_cntrl3.fwdFrom.avg_stall_time  6651.577082                       # Average number of cycles messages are stalled in this MB
system.ruby.l1_cntrl3.mandatoryQueue.avg_buf_msgs     0.477540                       # Average number of messages in buffer
system.ruby.l1_cntrl3.mandatoryQueue.avg_stall_time   733.304827                       # Average number of cycles messages are stalled in this MB
system.ruby.l1_cntrl3.reqTo.avg_buf_msgs     0.000463                       # Average number of messages in buffer
system.ruby.l1_cntrl3.reqTo.avg_stall_time   497.635384                       # Average number of cycles messages are stalled in this MB
system.ruby.l1_cntrl3.respFrom.avg_buf_msgs     0.000242                       # Average number of messages in buffer
system.ruby.l1_cntrl3.respFrom.avg_stall_time 16290.815224                       # Average number of cycles messages are stalled in this MB
system.ruby.l1_cntrl3.respTo.avg_buf_msgs     0.000016                       # Average number of messages in buffer
system.ruby.l1_cntrl3.respTo.avg_stall_time   804.734065                       # Average number of cycles messages are stalled in this MB
system.ruby.latency_hist_seqr::bucket_size            1                      
system.ruby.latency_hist_seqr::max_bucket            9                      
system.ruby.latency_hist_seqr::samples      255015208                      
system.ruby.latency_hist_seqr            |   255015208    100.00%    100.00% |           0      0.00%    100.00% |           0      0.00%    100.00% |           0      0.00%    100.00% |           0      0.00%    100.00% |           0      0.00%    100.00% |           0      0.00%    100.00% |           0      0.00%    100.00% |           0      0.00%    100.00% |           0      0.00%    100.00%
system.ruby.latency_hist_seqr::total        255015208                      
system.ruby.miss_latency_hist_seqr::bucket_size            1                      
system.ruby.miss_latency_hist_seqr::max_bucket            9                      
system.ruby.miss_latency_hist_seqr::samples       162131                      
system.ruby.miss_latency_hist_seqr       |      162131    100.00%    100.00% |           0      0.00%    100.00% |           0      0.00%    100.00% |           0      0.00%    100.00% |           0      0.00%    100.00% |           0      0.00%    100.00% |           0      0.00%    100.00% |           0      0.00%    100.00% |           0      0.00%    100.00% |           0      0.00%    100.00%
system.ruby.miss_latency_hist_seqr::total       162131                      
system.ruby.network.average_flit_latency    18.027478                      
system.ruby.network.average_flit_network_latency    12.103776                      
system.ruby.network.average_flit_queueing_latency     5.923703                      
system.ruby.network.average_flit_vnet_latency |   15.661472                       |    5.006656                       |    7.381769                      
system.ruby.network.average_flit_vqueue_latency |    6.498369                       |           6                       |    4.673338                      
system.ruby.network.average_hops             0.996806                      
system.ruby.network.average_packet_latency    15.360317                      
system.ruby.network.average_packet_network_latency    10.919780                      
system.ruby.network.average_packet_queueing_latency     4.440537                      
system.ruby.network.average_packet_vnet_latency |   25.267474                       |    5.006656                       |    6.170917                      
system.ruby.network.average_packet_vqueue_latency |    6.406255                       |           6                       |    2.621797                      
system.ruby.network.avg_link_utilization     0.030739                      
system.ruby.network.avg_vc_load          |    0.013694     44.55%     44.55% |    0.001654      5.38%     49.93% |    0.001598      5.20%     55.13% |    0.001588      5.17%     60.29% |    0.002597      8.45%     68.74% |    0.000302      0.98%     69.72% |    0.000290      0.95%     70.67% |    0.000290      0.94%     71.61% |    0.006493     21.12%     92.74% |    0.000773      2.51%     95.25% |    0.000729      2.37%     97.62% |    0.000731      2.38%    100.00%
system.ruby.network.avg_vc_load::total       0.030739                      
system.ruby.network.ext_in_link_utilization      1383631                      
system.ruby.network.ext_out_link_utilization      1383631                      
system.ruby.network.flit_network_latency |    13062435                       |      784508                       |     2900216                      
system.ruby.network.flit_queueing_latency |     5419958                       |      940158                       |     1836103                      
system.ruby.network.flits_injected       |      834049     60.28%     60.28% |      156693     11.32%     71.60% |      392889     28.40%    100.00%
system.ruby.network.flits_injected::total      1383631                      
system.ruby.network.flits_received       |      834049     60.28%     60.28% |      156693     11.32%     71.60% |      392889     28.40%    100.00%
system.ruby.network.flits_received::total      1383631                      
system.ruby.network.int_link_utilization      1379211                      
system.ruby.network.packet_network_latency |     4290038                       |      784508                       |     1961494                      
system.ruby.network.packet_queueing_latency |     1087686                       |      940158                       |      833367                      
system.ruby.network.packets_injected     |      169785     26.35%     26.35% |      156693     24.32%     50.67% |      317861     49.33%    100.00%
system.ruby.network.packets_injected::total       644339                      
system.ruby.network.packets_received     |      169785     26.35%     26.35% |      156693     24.32%     50.67% |      317861     49.33%    100.00%
system.ruby.network.packets_received::total       644339                      
system.ruby.network.routers0.buffer_reads       836906                      
system.ruby.network.routers0.buffer_writes       836906                      
system.ruby.network.routers0.crossbar_activity       836906                      
system.ruby.network.routers0.sw_input_arbiter_activity       843371                      
system.ruby.network.routers0.sw_output_arbiter_activity       836906                      
system.ruby.network.routers1.buffer_reads       595322                      
system.ruby.network.routers1.buffer_writes       595322                      
system.ruby.network.routers1.crossbar_activity       595322                      
system.ruby.network.routers1.sw_input_arbiter_activity       595613                      
system.ruby.network.routers1.sw_output_arbiter_activity       595322                      
system.ruby.network.routers2.buffer_reads       711899                      
system.ruby.network.routers2.buffer_writes       711899                      
system.ruby.network.routers2.crossbar_activity       711899                      
system.ruby.network.routers2.sw_input_arbiter_activity       713703                      
system.ruby.network.routers2.sw_output_arbiter_activity       711899                      
system.ruby.network.routers3.buffer_reads       618715                      
system.ruby.network.routers3.buffer_writes       618715                      
system.ruby.network.routers3.crossbar_activity       618715                      
system.ruby.network.routers3.sw_input_arbiter_activity       619028                      
system.ruby.network.routers3.sw_output_arbiter_activity       618715                      
system.ruby.outstanding_req_hist_seqr::bucket_size            1                      
system.ruby.outstanding_req_hist_seqr::max_bucket            9                      
system.ruby.outstanding_req_hist_seqr::samples    255015208                      
system.ruby.outstanding_req_hist_seqr::mean     1.000000                      
system.ruby.outstanding_req_hist_seqr::gmean     1.000000                      
system.ruby.outstanding_req_hist_seqr::stdev     0.000217                      
system.ruby.outstanding_req_hist_seqr    |           0      0.00%      0.00% |   255015196    100.00%    100.00% |          12      0.00%    100.00% |           0      0.00%    100.00% |           0      0.00%    100.00% |           0      0.00%    100.00% |           0      0.00%    100.00% |           0      0.00%    100.00% |           0      0.00%    100.00% |           0      0.00%    100.00%
system.ruby.outstanding_req_hist_seqr::total    255015208                      
system.switch_cpus0.Branches                  2596980                       # Number of branches fetched
system.switch_cpus0.committedInsts           34235968                       # Number of instructions committed
system.switch_cpus0.committedOps             63480870                       # Number of ops (including micro ops) committed
system.switch_cpus0.dtb.rdAccesses            9711807                       # TLB accesses on read requests
system.switch_cpus0.dtb.rdMisses                 3380                       # TLB misses on read requests
system.switch_cpus0.dtb.wrAccesses            2146627                       # TLB accesses on write requests
system.switch_cpus0.dtb.wrMisses                  598                       # TLB misses on write requests
system.switch_cpus0.idle_fraction            0.000563                       # Percentage of idle cycles
system.switch_cpus0.itb.rdAccesses                  0                       # TLB accesses on read requests
system.switch_cpus0.itb.rdMisses                    0                       # TLB misses on read requests
system.switch_cpus0.itb.wrAccesses           51911340                       # TLB accesses on write requests
system.switch_cpus0.itb.wrMisses                  536                       # TLB misses on write requests
system.switch_cpus0.kern.inst.arm                   0                       # number of arm instructions executed
system.switch_cpus0.kern.inst.quiesce               0                       # number of quiesce instructions executed
system.switch_cpus0.not_idle_fraction        0.999437                       # Percentage of non-idle cycles
system.switch_cpus0.numCycles               134891464                       # number of cpu cycles simulated
system.switch_cpus0.numWorkItemsCompleted            0                       # number of work items this cpu completed
system.switch_cpus0.numWorkItemsStarted             0                       # number of work items this cpu started
system.switch_cpus0.num_busy_cycles      134815477.130129                       # Number of busy cycles
system.switch_cpus0.num_cc_register_reads      9232540                       # number of times the CC registers were read
system.switch_cpus0.num_cc_register_writes      7249822                       # number of times the CC registers were written
system.switch_cpus0.num_conditional_control_insts      1279066                       # number of instructions that are conditional controls
system.switch_cpus0.num_fp_alu_accesses      41279087                       # Number of float alu accesses
system.switch_cpus0.num_fp_insts             41279087                       # number of float instructions
system.switch_cpus0.num_fp_register_reads     63753675                       # number of times the floating registers were read
system.switch_cpus0.num_fp_register_writes     38582697                       # number of times the floating registers were written
system.switch_cpus0.num_func_calls             844493                       # number of times a function call or return occured
system.switch_cpus0.num_idle_cycles      75986.869871                       # Number of idle cycles
system.switch_cpus0.num_int_alu_accesses     32258226                       # Number of integer alu accesses
system.switch_cpus0.num_int_insts            32258226                       # number of integer instructions
system.switch_cpus0.num_int_register_reads     63408393                       # number of times the integer registers were read
system.switch_cpus0.num_int_register_writes     19850151                       # number of times the integer registers were written
system.switch_cpus0.num_load_insts            9708423                       # Number of load instructions
system.switch_cpus0.num_mem_refs             11854469                       # number of memory refs
system.switch_cpus0.num_store_insts           2146046                       # Number of store instructions
system.switch_cpus0.num_vec_alu_accesses            0                       # Number of vector alu accesses
system.switch_cpus0.num_vec_insts                   0                       # number of vector instructions
system.switch_cpus0.num_vec_register_reads            0                       # number of times the vector registers were read
system.switch_cpus0.num_vec_register_writes            0                       # number of times the vector registers were written
system.switch_cpus0.op_class::No_OpClass        40266      0.06%      0.06% # Class of executed instruction
system.switch_cpus0.op_class::IntAlu         22892886     36.06%     36.13% # Class of executed instruction
system.switch_cpus0.op_class::IntMult            1700      0.00%     36.13% # Class of executed instruction
system.switch_cpus0.op_class::IntDiv             4728      0.01%     36.14% # Class of executed instruction
system.switch_cpus0.op_class::FloatAdd        5729130      9.02%     45.16% # Class of executed instruction
system.switch_cpus0.op_class::FloatCmp              0      0.00%     45.16% # Class of executed instruction
system.switch_cpus0.op_class::FloatCvt            304      0.00%     45.16% # Class of executed instruction
system.switch_cpus0.op_class::FloatMult             0      0.00%     45.16% # Class of executed instruction
system.switch_cpus0.op_class::FloatMultAcc            0      0.00%     45.16% # Class of executed instruction
system.switch_cpus0.op_class::FloatDiv              0      0.00%     45.16% # Class of executed instruction
system.switch_cpus0.op_class::FloatMisc             0      0.00%     45.16% # Class of executed instruction
system.switch_cpus0.op_class::FloatSqrt             0      0.00%     45.16% # Class of executed instruction
system.switch_cpus0.op_class::SimdAdd             144      0.00%     45.16% # Class of executed instruction
system.switch_cpus0.op_class::SimdAddAcc            0      0.00%     45.16% # Class of executed instruction
system.switch_cpus0.op_class::SimdAlu         7265597     11.45%     56.61% # Class of executed instruction
system.switch_cpus0.op_class::SimdCmp               0      0.00%     56.61% # Class of executed instruction
system.switch_cpus0.op_class::SimdCvt             288      0.00%     56.61% # Class of executed instruction
system.switch_cpus0.op_class::SimdMisc        1192600      1.88%     58.49% # Class of executed instruction
system.switch_cpus0.op_class::SimdMult              0      0.00%     58.49% # Class of executed instruction
system.switch_cpus0.op_class::SimdMultAcc            0      0.00%     58.49% # Class of executed instruction
system.switch_cpus0.op_class::SimdShift            68      0.00%     58.49% # Class of executed instruction
system.switch_cpus0.op_class::SimdShiftAcc            0      0.00%     58.49% # Class of executed instruction
system.switch_cpus0.op_class::SimdDiv               0      0.00%     58.49% # Class of executed instruction
system.switch_cpus0.op_class::SimdSqrt              0      0.00%     58.49% # Class of executed instruction
system.switch_cpus0.op_class::SimdFloatAdd      4062300      6.40%     64.89% # Class of executed instruction
system.switch_cpus0.op_class::SimdFloatAlu            0      0.00%     64.89% # Class of executed instruction
system.switch_cpus0.op_class::SimdFloatCmp            0      0.00%     64.89% # Class of executed instruction
system.switch_cpus0.op_class::SimdFloatCvt      3996400      6.30%     71.18% # Class of executed instruction
system.switch_cpus0.op_class::SimdFloatDiv       409600      0.65%     71.83% # Class of executed instruction
system.switch_cpus0.op_class::SimdFloatMisc            0      0.00%     71.83% # Class of executed instruction
system.switch_cpus0.op_class::SimdFloatMult      5928000      9.34%     81.16% # Class of executed instruction
system.switch_cpus0.op_class::SimdFloatMultAcc            0      0.00%     81.16% # Class of executed instruction
system.switch_cpus0.op_class::SimdFloatSqrt       102400      0.16%     81.33% # Class of executed instruction
system.switch_cpus0.op_class::SimdReduceAdd            0      0.00%     81.33% # Class of executed instruction
system.switch_cpus0.op_class::SimdReduceAlu            0      0.00%     81.33% # Class of executed instruction
system.switch_cpus0.op_class::SimdReduceCmp            0      0.00%     81.33% # Class of executed instruction
system.switch_cpus0.op_class::SimdFloatReduceAdd            0      0.00%     81.33% # Class of executed instruction
system.switch_cpus0.op_class::SimdFloatReduceCmp            0      0.00%     81.33% # Class of executed instruction
system.switch_cpus0.op_class::SimdAes               0      0.00%     81.33% # Class of executed instruction
system.switch_cpus0.op_class::SimdAesMix            0      0.00%     81.33% # Class of executed instruction
system.switch_cpus0.op_class::SimdSha1Hash            0      0.00%     81.33% # Class of executed instruction
system.switch_cpus0.op_class::SimdSha1Hash2            0      0.00%     81.33% # Class of executed instruction
system.switch_cpus0.op_class::SimdSha256Hash            0      0.00%     81.33% # Class of executed instruction
system.switch_cpus0.op_class::SimdSha256Hash2            0      0.00%     81.33% # Class of executed instruction
system.switch_cpus0.op_class::SimdShaSigma2            0      0.00%     81.33% # Class of executed instruction
system.switch_cpus0.op_class::SimdShaSigma3            0      0.00%     81.33% # Class of executed instruction
system.switch_cpus0.op_class::SimdPredAlu            0      0.00%     81.33% # Class of executed instruction
system.switch_cpus0.op_class::MemRead         2061536      3.25%     84.57% # Class of executed instruction
system.switch_cpus0.op_class::MemWrite         886105      1.40%     85.97% # Class of executed instruction
system.switch_cpus0.op_class::FloatMemRead      7646887     12.05%     98.02% # Class of executed instruction
system.switch_cpus0.op_class::FloatMemWrite      1259941      1.98%    100.00% # Class of executed instruction
system.switch_cpus0.op_class::IprAccess             0      0.00%    100.00% # Class of executed instruction
system.switch_cpus0.op_class::InstPrefetch            0      0.00%    100.00% # Class of executed instruction
system.switch_cpus0.op_class::total          63480880                       # Class of executed instruction
system.switch_cpus1.Branches                  2570317                       # Number of branches fetched
system.switch_cpus1.committedInsts           34228774                       # Number of instructions committed
system.switch_cpus1.committedOps             63287273                       # Number of ops (including micro ops) committed
system.switch_cpus1.dtb.rdAccesses            9685301                       # TLB accesses on read requests
system.switch_cpus1.dtb.rdMisses                 2630                       # TLB misses on read requests
system.switch_cpus1.dtb.wrAccesses            2097697                       # TLB accesses on write requests
system.switch_cpus1.dtb.wrMisses                  469                       # TLB misses on write requests
system.switch_cpus1.idle_fraction            0.032335                       # Percentage of idle cycles
system.switch_cpus1.itb.rdAccesses                  0                       # TLB accesses on read requests
system.switch_cpus1.itb.rdMisses                    0                       # TLB misses on read requests
system.switch_cpus1.itb.wrAccesses           51891807                       # TLB accesses on write requests
system.switch_cpus1.itb.wrMisses                  389                       # TLB misses on write requests
system.switch_cpus1.kern.inst.arm                   0                       # number of arm instructions executed
system.switch_cpus1.kern.inst.quiesce               0                       # number of quiesce instructions executed
system.switch_cpus1.not_idle_fraction        0.967665                       # Percentage of non-idle cycles
system.switch_cpus1.numCycles               133228846                       # number of cpu cycles simulated
system.switch_cpus1.numWorkItemsCompleted            0                       # number of work items this cpu completed
system.switch_cpus1.numWorkItemsStarted             0                       # number of work items this cpu started
system.switch_cpus1.num_busy_cycles      128920833.930144                       # Number of busy cycles
system.switch_cpus1.num_cc_register_reads      9054254                       # number of times the CC registers were read
system.switch_cpus1.num_cc_register_writes      7206463                       # number of times the CC registers were written
system.switch_cpus1.num_conditional_control_insts      1246339                       # number of instructions that are conditional controls
system.switch_cpus1.num_fp_alu_accesses      41277165                       # Number of float alu accesses
system.switch_cpus1.num_fp_insts             41277165                       # number of float instructions
system.switch_cpus1.num_fp_register_reads     63754215                       # number of times the floating registers were read
system.switch_cpus1.num_fp_register_writes     38582091                       # number of times the floating registers were written
[...]
system.mem_ctrls1.llc.tags.tagsinuse      3171.027964                       # Cycle average of tags in use
system.mem_ctrls1.llc.tags.total_refs               0                       # Total number of references to valid blocks.
system.mem_ctrls1.llc.tags.sampled_refs             0                       # Sample count of references to valid blocks.
system.mem_ctrls1.llc.tags.avg_refs               nan                       # Average number of references to valid blocks.
system.mem_ctrls1.llc.tags.warmup_cycle  101653757907500                       # Cycle when the warmup percentage was hit.
system.mem_ctrls1.llc.tags.occ_blocks::.ruby.dir_cntrl1  3171.027964                       # Average occupied blocks per requestor
system.mem_ctrls1.llc.tags.occ_percent::.ruby.dir_cntrl1     0.012097                       # Average percentage of cache occupancy
system.mem_ctrls1.llc.tags.occ_percent::total     0.012097                       # Average percentage of cache occupancy
system.mem_ctrls1.llc.tags.occ_task_id_blocks::1024         3382                       # Occupied blocks per task id
system.mem_ctrls1.llc.tags.age_task_id_blocks_1024::0            6                       # Occupied blocks per task id
system.mem_ctrls1.llc.tags.age_task_id_blocks_1024::1            1                       # Occupied blocks per task id
system.mem_ctrls1.llc.tags.age_task_id_blocks_1024::2            1                       # Occupied blocks per task id
system.mem_ctrls1.llc.tags.age_task_id_blocks_1024::3          160                       # Occupied blocks per task id
system.mem_ctrls1.llc.tags.age_task_id_blocks_1024::4         3214                       # Occupied blocks per task id
system.mem_ctrls1.llc.tags.occ_task_id_percent::1024     0.012901                       # Percentage of cache occupancy per task id
system.mem_ctrls1.llc.tags.tag_accesses        708502                       # Number of tag accesses
system.mem_ctrls1.llc.tags.data_accesses        44070                       # Number of data accesses
system.mem_ctrls1.llc.tags.power_state.pwrStateResidencyTicks::UNDEFINED 101721203579001                       # Cumulative time (in ticks) in various power states
system.mem_ctrls1.rank1.actEnergy             4755240                       # Energy for activate commands per rank (pJ)
system.mem_ctrls1.rank1.preEnergy             2523675                       # Energy for precharge commands per rank (pJ)
system.mem_ctrls1.rank1.readEnergy           12659220                       # Energy for read commands per rank (pJ)
system.mem_ctrls1.rank1.writeEnergy                 0                       # Energy for write commands per rank (pJ)
system.mem_ctrls1.rank1.refreshEnergy    5324011680.000001                       # Energy for refresh commands per rank (pJ)
system.mem_ctrls1.rank1.actBackEnergy      1561757250                       # Energy for active background per rank (pJ)
system.mem_ctrls1.rank1.preBackEnergy     24583473120                       # Energy for precharge background per rank (pJ)
system.mem_ctrls1.rank1.actPowerDownEnergy            0                       # Energy for active power-down per rank (pJ)
system.mem_ctrls1.rank1.prePowerDownEnergy            0                       # Energy for precharge power-down per rank (pJ)
system.mem_ctrls1.rank1.selfRefreshEnergy            0                       # Energy for self refresh per rank (pJ)
system.mem_ctrls1.rank1.totalEnergy       31489180185                       # Total energy per rank (pJ)
system.mem_ctrls1.rank1.averagePower       466.880933                       # Core power per rank (mW)
system.mem_ctrls1.rank1.totalIdleTime               0                       # Total Idle time Per DRAM Rank
system.mem_ctrls1.rank1.memoryStateTime::IDLE  63898417000                       # Time in different power states
system.mem_ctrls1.rank1.memoryStateTime::REF   2252120000                       # Time in different power states
system.mem_ctrls1.rank1.memoryStateTime::SREF            0                       # Time in different power states
system.mem_ctrls1.rank1.memoryStateTime::PRE_PDN            0                       # Time in different power states
system.mem_ctrls1.rank1.memoryStateTime::ACT   1295310501                       # Time in different power states
system.mem_ctrls1.rank1.memoryStateTime::ACT_PDN            0                       # Time in different power states
system.mem_ctrls1.rank0.actEnergy             5940480                       # Energy for activate commands per rank (pJ)
system.mem_ctrls1.rank0.preEnergy             3157440                       # Energy for precharge commands per rank (pJ)
system.mem_ctrls1.rank0.readEnergy           11488260                       # Energy for read commands per rank (pJ)
system.mem_ctrls1.rank0.writeEnergy                 0                       # Energy for write commands per rank (pJ)
system.mem_ctrls1.rank0.refreshEnergy    5324011680.000001                       # Energy for refresh commands per rank (pJ)
system.mem_ctrls1.rank0.actBackEnergy      1562856210                       # Energy for active background per rank (pJ)
system.mem_ctrls1.rank0.preBackEnergy     24583068960                       # Energy for precharge background per rank (pJ)
system.mem_ctrls1.rank0.actPowerDownEnergy            0                       # Energy for active power-down per rank (pJ)
system.mem_ctrls1.rank0.prePowerDownEnergy            0                       # Energy for precharge power-down per rank (pJ)
system.mem_ctrls1.rank0.selfRefreshEnergy            0                       # Energy for self refresh per rank (pJ)
system.mem_ctrls1.rank0.totalEnergy       31490523030                       # Total energy per rank (pJ)
system.mem_ctrls1.rank0.averagePower       466.900843                       # Core power per rank (mW)
system.mem_ctrls1.rank0.totalIdleTime               0                       # Total Idle time Per DRAM Rank
system.mem_ctrls1.rank0.memoryStateTime::IDLE  63895525501                       # Time in different power states
system.mem_ctrls1.rank0.memoryStateTime::REF   2252120000                       # Time in different power states
system.mem_ctrls1.rank0.memoryStateTime::SREF            0                       # Time in different power states
system.mem_ctrls1.rank0.memoryStateTime::PRE_PDN            0                       # Time in different power states
system.mem_ctrls1.rank0.memoryStateTime::ACT   1298202000                       # Time in different power states
system.mem_ctrls1.rank0.memoryStateTime::ACT_PDN            0                       # Time in different power states
system.mem_ctrls1.power_state.pwrStateResidencyTicks::UNDEFINED 101721203579001                       # Cumulative time (in ticks) in various power states
system.cpu_voltage_domain.voltage                   1                       # Voltage in Volts
system.iobus.trans_dist::ReadReq                  296                       # Transaction distribution
system.iobus.trans_dist::ReadResp                 296                       # Transaction distribution
system.iobus.trans_dist::WriteReq                 557                       # Transaction distribution
system.iobus.trans_dist::WriteResp                557                       # Transaction distribution
system.iobus.pkt_count_system.pc.south_bridge.io_apic.int_master::system.ruby.l1_cntrl1.sequencer.pio-slave-port          178                       # Packet count per connected master and slave (bytes)
system.iobus.pkt_count_system.pc.south_bridge.io_apic.int_master::total          178                       # Packet count per connected master and slave (bytes)
system.iobus.pkt_count_system.ruby.l1_cntrl0.sequencer.mem-master-port::system.ruby.l1_cntrl0.sequencer.pio-slave-port          160                       # Packet count per connected master and slave (bytes)
system.iobus.pkt_count_system.ruby.l1_cntrl0.sequencer.mem-master-port::system.ruby.l1_cntrl1.sequencer.pio-slave-port            2                       # Packet count per connected master and slave (bytes)
system.iobus.pkt_count_system.ruby.l1_cntrl0.sequencer.mem-master-port::system.ruby.l1_cntrl2.sequencer.pio-slave-port            2                       # Packet count per connected master and slave (bytes)
system.iobus.pkt_count_system.ruby.l1_cntrl0.sequencer.mem-master-port::system.ruby.l1_cntrl3.sequencer.pio-slave-port            2                       # Packet count per connected master and slave (bytes)
system.iobus.pkt_count_system.ruby.l1_cntrl0.sequencer.mem-master-port::total          166                       # Packet count per connected master and slave (bytes)
system.iobus.pkt_count_system.ruby.l1_cntrl1.sequencer.mem-master-port::system.pc.south_bridge.ide.pio           48                       # Packet count per connected master and slave (bytes)
system.iobus.pkt_count_system.ruby.l1_cntrl1.sequencer.mem-master-port::system.pc.com_1.pio          670                       # Packet count per connected master and slave (bytes)
system.iobus.pkt_count_system.ruby.l1_cntrl1.sequencer.mem-master-port::system.ruby.l1_cntrl0.sequencer.pio-slave-port            2                       # Packet count per connected master and slave (bytes)
system.iobus.pkt_count_system.ruby.l1_cntrl1.sequencer.mem-master-port::system.ruby.l1_cntrl1.sequencer.pio-slave-port          174                       # Packet count per connected master and slave (bytes)
system.iobus.pkt_count_system.ruby.l1_cntrl1.sequencer.mem-master-port::system.ruby.l1_cntrl2.sequencer.pio-slave-port            2                       # Packet count per connected master and slave (bytes)
system.iobus.pkt_count_system.ruby.l1_cntrl1.sequencer.mem-master-port::system.ruby.l1_cntrl3.sequencer.pio-slave-port            4                       # Packet count per connected master and slave (bytes)
system.iobus.pkt_count_system.ruby.l1_cntrl1.sequencer.mem-master-port::total          900                       # Packet count per connected master and slave (bytes)
system.iobus.pkt_count_system.ruby.l1_cntrl2.sequencer.mem-master-port::system.pc.south_bridge.ide.pio          102                       # Packet count per connected master and slave (bytes)
system.iobus.pkt_count_system.ruby.l1_cntrl2.sequencer.mem-master-port::system.pc.com_1.pio            6                       # Packet count per connected master and slave (bytes)
system.iobus.pkt_count_system.ruby.l1_cntrl2.sequencer.mem-master-port::system.ruby.l1_cntrl0.sequencer.pio-slave-port            4                       # Packet count per connected master and slave (bytes)
system.iobus.pkt_count_system.ruby.l1_cntrl2.sequencer.mem-master-port::system.ruby.l1_cntrl2.sequencer.pio-slave-port          152                       # Packet count per connected master and slave (bytes)
system.iobus.pkt_count_system.ruby.l1_cntrl2.sequencer.mem-master-port::total          264                       # Packet count per connected master and slave (bytes)
system.iobus.pkt_count_system.ruby.l1_cntrl3.sequencer.mem-master-port::system.pc.south_bridge.ide.pio           34                       # Packet count per connected master and slave (bytes)
system.iobus.pkt_count_system.ruby.l1_cntrl3.sequencer.mem-master-port::system.ruby.l1_cntrl0.sequencer.pio-slave-port            2                       # Packet count per connected master and slave (bytes)
system.iobus.pkt_count_system.ruby.l1_cntrl3.sequencer.mem-master-port::system.ruby.l1_cntrl1.sequencer.pio-slave-port            2                       # Packet count per connected master and slave (bytes)
system.iobus.pkt_count_system.ruby.l1_cntrl3.sequencer.mem-master-port::system.ruby.l1_cntrl2.sequencer.pio-slave-port            2                       # Packet count per connected master and slave (bytes)
system.iobus.pkt_count_system.ruby.l1_cntrl3.sequencer.mem-master-port::system.ruby.l1_cntrl3.sequencer.pio-slave-port          158                       # Packet count per connected master and slave (bytes)
system.iobus.pkt_count_system.ruby.l1_cntrl3.sequencer.mem-master-port::total          198                       # Packet count per connected master and slave (bytes)
system.iobus.pkt_count::total                    1706                       # Packet count per connected master and slave (bytes)
system.iobus.pkt_size_system.pc.south_bridge.io_apic.int_master::system.ruby.l1_cntrl1.sequencer.pio-slave-port          356                       # Cumulative packet size per connected master and slave (bytes)
system.iobus.pkt_size_system.pc.south_bridge.io_apic.int_master::total          356                       # Cumulative packet size per connected master and slave (bytes)
system.iobus.pkt_size_system.ruby.l1_cntrl0.sequencer.mem-master-port::system.ruby.l1_cntrl0.sequencer.pio-slave-port          320                       # Cumulative packet size per connected master and slave (bytes)
system.iobus.pkt_size_system.ruby.l1_cntrl0.sequencer.mem-master-port::system.ruby.l1_cntrl1.sequencer.pio-slave-port            4                       # Cumulative packet size per connected master and slave (bytes)
system.iobus.pkt_size_system.ruby.l1_cntrl0.sequencer.mem-master-port::system.ruby.l1_cntrl2.sequencer.pio-slave-port            4                       # Cumulative packet size per connected master and slave (bytes)
system.iobus.pkt_size_system.ruby.l1_cntrl0.sequencer.mem-master-port::system.ruby.l1_cntrl3.sequencer.pio-slave-port            4                       # Cumulative packet size per connected master and slave (bytes)
system.iobus.pkt_size_system.ruby.l1_cntrl0.sequencer.mem-master-port::total          332                       # Cumulative packet size per connected master and slave (bytes)
system.iobus.pkt_size_system.ruby.l1_cntrl1.sequencer.mem-master-port::system.pc.south_bridge.ide.pio           24                       # Cumulative packet size per connected master and slave (bytes)
system.iobus.pkt_size_system.ruby.l1_cntrl1.sequencer.mem-master-port::system.pc.com_1.pio          335                       # Cumulative packet size per connected master and slave (bytes)
system.iobus.pkt_size_system.ruby.l1_cntrl1.sequencer.mem-master-port::system.ruby.l1_cntrl0.sequencer.pio-slave-port            4                       # Cumulative packet size per connected master and slave (bytes)
system.iobus.pkt_size_system.ruby.l1_cntrl1.sequencer.mem-master-port::system.ruby.l1_cntrl1.sequencer.pio-slave-port          348                       # Cumulative packet size per connected master and slave (bytes)
system.iobus.pkt_size_system.ruby.l1_cntrl1.sequencer.mem-master-port::system.ruby.l1_cntrl2.sequencer.pio-slave-port            4                       # Cumulative packet size per connected master and slave (bytes)
system.iobus.pkt_size_system.ruby.l1_cntrl1.sequencer.mem-master-port::system.ruby.l1_cntrl3.sequencer.pio-slave-port            8                       # Cumulative packet size per connected master and slave (bytes)
system.iobus.pkt_size_system.ruby.l1_cntrl1.sequencer.mem-master-port::total          723                       # Cumulative packet size per connected master and slave (bytes)
system.iobus.pkt_size_system.ruby.l1_cntrl2.sequencer.mem-master-port::system.pc.south_bridge.ide.pio           60                       # Cumulative packet size per connected master and slave (bytes)
system.iobus.pkt_size_system.ruby.l1_cntrl2.sequencer.mem-master-port::system.pc.com_1.pio            3                       # Cumulative packet size per connected master and slave (bytes)
system.iobus.pkt_size_system.ruby.l1_cntrl2.sequencer.mem-master-port::system.ruby.l1_cntrl0.sequencer.pio-slave-port            8                       # Cumulative packet size per connected master and slave (bytes)
system.iobus.pkt_size_system.ruby.l1_cntrl2.sequencer.mem-master-port::system.ruby.l1_cntrl2.sequencer.pio-slave-port          304                       # Cumulative packet size per connected master and slave (bytes)
system.iobus.pkt_size_system.ruby.l1_cntrl2.sequencer.mem-master-port::total          375                       # Cumulative packet size per connected master and slave (bytes)
system.iobus.pkt_size_system.ruby.l1_cntrl3.sequencer.mem-master-port::system.pc.south_bridge.ide.pio           20                       # Cumulative packet size per connected master and slave (bytes)
system.iobus.pkt_size_system.ruby.l1_cntrl3.sequencer.mem-master-port::system.ruby.l1_cntrl0.sequencer.pio-slave-port            4                       # Cumulative packet size per connected master and slave (bytes)
system.iobus.pkt_size_system.ruby.l1_cntrl3.sequencer.mem-master-port::system.ruby.l1_cntrl1.sequencer.pio-slave-port            4                       # Cumulative packet size per connected master and slave (bytes)
system.iobus.pkt_size_system.ruby.l1_cntrl3.sequencer.mem-master-port::system.ruby.l1_cntrl2.sequencer.pio-slave-port            4                       # Cumulative packet size per connected master and slave (bytes)
system.iobus.pkt_size_system.ruby.l1_cntrl3.sequencer.mem-master-port::system.ruby.l1_cntrl3.sequencer.pio-slave-port          316                       # Cumulative packet size per connected master and slave (bytes)
system.iobus.pkt_size_system.ruby.l1_cntrl3.sequencer.mem-master-port::total          348                       # Cumulative packet size per connected master and slave (bytes)
system.iobus.pkt_size::total                     2134                       # Cumulative packet size per connected master and slave (bytes)
system.iobus.reqLayer2.occupancy               152000                       # Layer occupancy (ticks)
system.iobus.reqLayer2.utilization                0.0                       # Layer utilization (%)
system.iobus.power_state.pwrStateResidencyTicks::UNDEFINED 101721203579001                       # Cumulative time (in ticks) in various power states
system.iobus.reqLayer19.occupancy              192430                       # Layer occupancy (ticks)
system.iobus.reqLayer19.utilization               0.0                       # Layer utilization (%)
system.iobus.reqLayer17.occupancy              202928                       # Layer occupancy (ticks)
system.iobus.reqLayer17.utilization               0.0                       # Layer utilization (%)
system.iobus.reqLayer12.occupancy              428000                       # Layer occupancy (ticks)
system.iobus.reqLayer12.utilization               0.0                       # Layer utilization (%)
system.iobus.reqLayer18.occupancy              392427                       # Layer occupancy (ticks)
system.iobus.reqLayer18.utilization               0.0                       # Layer utilization (%)
system.iobus.respLayer9.occupancy              145500                       # Layer occupancy (ticks)
system.iobus.respLayer9.utilization               0.0                       # Layer utilization (%)
system.iobus.respLayer5.occupancy              764500                       # Layer occupancy (ticks)
system.iobus.respLayer5.utilization               0.0                       # Layer utilization (%)
system.iobus.respLayer7.occupancy              185000                       # Layer occupancy (ticks)
system.iobus.respLayer7.utilization               0.0                       # Layer utilization (%)
system.iobus.respLayer0.occupancy              132496                       # Layer occupancy (ticks)
system.iobus.respLayer0.utilization               0.0                       # Layer utilization (%)
system.iobus.respLayer3.occupancy              126000                       # Layer occupancy (ticks)
system.iobus.respLayer3.utilization               0.0                       # Layer utilization (%)
system.iobus.reqLayer20.occupancy              196931                       # Layer occupancy (ticks)
system.iobus.reqLayer20.utilization               0.0                       # Layer utilization (%)

---------- End Simulation Statistics   ----------
