
---------- Begin Simulation Statistics ----------
final_tick                               110282586340001                       # Number of ticks from beginning of simulation (restored from checkpoints and never reset)
host_inst_rate                                8168744                       # Simulator instruction rate (inst/s)
host_mem_usage                                2060236                       # Number of bytes of host memory used
host_op_rate                                  8307455                       # Simulator op (including micro ops) rate (op/s)
host_seconds                                   615.49                       # Real time elapsed on the host
host_tick_rate                             8244408144                       # Simulator tick rate (ticks/s)
sim_freq                                 1000000000000                       # Frequency of simulated ticks
sim_insts                                  5027819002                       # Number of instructions simulated
sim_ops                                    5113196494                       # Number of ops (including micro ops) simulated
sim_seconds                                  5.074392                       # Number of seconds simulated
sim_ticks                                5074391954001                       # Number of ticks simulated
system.cpu0.committedInsts                          0                       # Number of instructions committed
system.cpu0.dtb.rdAccesses                          0                       # TLB accesses on read requests
system.cpu0.dtb.rdMisses                            0                       # TLB misses on read requests
system.cpu0.dtb.wrAccesses                          0                       # TLB accesses on write requests
system.cpu0.dtb.wrMisses                            0                       # TLB misses on write requests
system.cpu0.itb.rdAccesses                          0                       # TLB accesses on read requests
system.cpu0.itb.rdMisses                            0                       # TLB misses on read requests
system.cpu0.itb.wrAccesses                          0                       # TLB accesses on write requests
system.cpu0.itb.wrMisses                            0                       # TLB misses on write requests
system.cpu0.kern.inst.arm                           0                       # number of arm instructions executed
system.cpu0.kern.inst.quiesce                       0                       # number of quiesce instructions executed
system.cpu0.numCoalescedMMIO                        0                       # number of coalesced memory mapped IO requests
system.cpu0.numCycles                               0                       # number of cpu cycles simulated
system.cpu0.numExitSignal                           0                       # exits due to signal delivery
system.cpu0.numHalt                                 0                       # number of VM exits due to wait for interrupt instructions
system.cpu0.numHypercalls                           0                       # number of hypercalls
system.cpu0.numIO                                   0                       # number of VM exits due to legacy IO
system.cpu0.numInterrupts                           0                       # number of interrupts delivered
system.cpu0.numMMIO                                 0                       # number of VM exits due to memory mapped IO
system.cpu0.numVMExits                              0                       # total number of KVM exits
system.cpu0.numVMHalfEntries                        0                       # number of KVM entries to finalize pending operations
system.cpu0.numWorkItemsCompleted                   0                       # number of work items this cpu completed
system.cpu0.numWorkItemsStarted                     0                       # number of work items this cpu started
system.cpu1.committedInsts                          0                       # Number of instructions committed
system.cpu1.dtb.rdAccesses                          0                       # TLB accesses on read requests
system.cpu1.dtb.rdMisses                            0                       # TLB misses on read requests
system.cpu1.dtb.wrAccesses                          0                       # TLB accesses on write requests
system.cpu1.dtb.wrMisses                            0                       # TLB misses on write requests
system.cpu1.itb.rdAccesses                          0                       # TLB accesses on read requests
system.cpu1.itb.rdMisses                            0                       # TLB misses on read requests
system.cpu1.itb.wrAccesses                          0                       # TLB accesses on write requests
system.cpu1.itb.wrMisses                            0                       # TLB misses on write requests
system.cpu1.kern.inst.arm                           0                       # number of arm instructions executed
system.cpu1.kern.inst.quiesce                       0                       # number of quiesce instructions executed
system.cpu1.numCoalescedMMIO                        0                       # number of coalesced memory mapped IO requests
system.cpu1.numCycles                               0                       # number of cpu cycles simulated
system.cpu1.numExitSignal                           0                       # exits due to signal delivery
system.cpu1.numHalt                                 0                       # number of VM exits due to wait for interrupt instructions
system.cpu1.numHypercalls                           0                       # number of hypercalls
system.cpu1.numIO                                   0                       # number of VM exits due to legacy IO
system.cpu1.numInterrupts                           0                       # number of interrupts delivered
system.cpu1.numMMIO                                 0                       # number of VM exits due to memory mapped IO
system.cpu1.numVMExits                              0                       # total number of KVM exits
system.cpu1.numVMHalfEntries                        0                       # number of KVM entries to finalize pending operations
system.cpu1.numWorkItemsCompleted                   0                       # number of work items this cpu completed
system.cpu1.numWorkItemsStarted                     0                       # number of work items this cpu started
system.cpu2.committedInsts                          0                       # Number of instructions committed
system.cpu2.dtb.rdAccesses                          0                       # TLB accesses on read requests
system.cpu2.dtb.rdMisses                            0                       # TLB misses on read requests
system.cpu2.dtb.wrAccesses                          0                       # TLB accesses on write requests
system.cpu2.dtb.wrMisses                            0                       # TLB misses on write requests
system.cpu2.itb.rdAccesses                          0                       # TLB accesses on read requests
system.cpu2.itb.rdMisses                            0                       # TLB misses on read requests
system.cpu2.itb.wrAccesses                          0                       # TLB accesses on write requests
system.cpu2.itb.wrMisses                            0                       # TLB misses on write requests
system.cpu2.kern.inst.arm                           0                       # number of arm instructions executed
system.cpu2.kern.inst.quiesce                       0                       # number of quiesce instructions executed
system.cpu2.numCoalescedMMIO                        0                       # number of coalesced memory mapped IO requests
system.cpu2.numCycles                               0                       # number of cpu cycles simulated
system.cpu2.numExitSignal                           0                       # exits due to signal delivery
system.cpu2.numHalt                                 0                       # number of VM exits due to wait for interrupt instructions
system.cpu2.numHypercalls                           0                       # number of hypercalls
system.cpu2.numIO                                   0                       # number of VM exits due to legacy IO
system.cpu2.numInterrupts                           0                       # number of interrupts delivered
system.cpu2.numMMIO                                 0                       # number of VM exits due to memory mapped IO
system.cpu2.numVMExits                              0                       # total number of KVM exits
system.cpu2.numVMHalfEntries                        0                       # number of KVM entries to finalize pending operations
system.cpu2.numWorkItemsCompleted                   0                       # number of work items this cpu completed
system.cpu2.numWorkItemsStarted                     0                       # number of work items this cpu started
system.cpu3.committedInsts                          0                       # Number of instructions committed
system.cpu3.dtb.rdAccesses                          0                       # TLB accesses on read requests
system.cpu3.dtb.rdMisses                            0                       # TLB misses on read requests
system.cpu3.dtb.wrAccesses                          0                       # TLB accesses on write requests
system.cpu3.dtb.wrMisses                            0                       # TLB misses on write requests
system.cpu3.itb.rdAccesses                          0                       # TLB accesses on read requests
system.cpu3.itb.rdMisses                            0                       # TLB misses on read requests
system.cpu3.itb.wrAccesses                          0                       # TLB accesses on write requests
system.cpu3.itb.wrMisses                            0                       # TLB misses on write requests
system.cpu3.kern.inst.arm                           0                       # number of arm instructions executed
system.cpu3.kern.inst.quiesce                       0                       # number of quiesce instructions executed
system.cpu3.numCoalescedMMIO                        0                       # number of coalesced memory mapped IO requests
system.cpu3.numCycles                               0                       # number of cpu cycles simulated
system.cpu3.numExitSignal                           0                       # exits due to signal delivery
system.cpu3.numHalt                                 0                       # number of VM exits due to wait for interrupt instructions
system.cpu3.numHypercalls                           0                       # number of hypercalls
system.cpu3.numIO                                   0                       # number of VM exits due to legacy IO
system.cpu3.numInterrupts                           0                       # number of interrupts delivered
system.cpu3.numMMIO                                 0                       # number of VM exits due to memory mapped IO
system.cpu3.numVMExits                              0                       # total number of KVM exits
system.cpu3.numVMHalfEntries                        0                       # number of KVM entries to finalize pending operations
system.cpu3.numWorkItemsCompleted                   0                       # number of work items this cpu completed
system.cpu3.numWorkItemsStarted                     0                       # number of work items this cpu started
system.pc.south_bridge.ide.disks.dma_read_bytes            0                       # Number of bytes transfered via DMA reads (not PRD).
system.pc.south_bridge.ide.disks.dma_read_full_pages            0                       # Number of full page size DMA reads (not PRD).
system.pc.south_bridge.ide.disks.dma_read_txs            0                       # Number of DMA read transactions (not PRD).
system.pc.south_bridge.ide.disks.dma_write_bytes       110592                       # Number of bytes transfered via DMA writes.
system.pc.south_bridge.ide.disks.dma_write_full_pages           27                       # Number of full page size DMA writes.
system.pc.south_bridge.ide.disks.dma_write_txs           27                       # Number of DMA write transactions.
system.ruby.DMA_Controller.I.allocI_load |           6    100.00%    100.00% |           0      0.00%    100.00%
system.ruby.DMA_Controller.I.allocI_load::total            6                      
system.ruby.DMA_Controller.I.allocI_store |        1728    100.00%    100.00% |           0      0.00%    100.00%
system.ruby.DMA_Controller.I.allocI_store::total         1728                      
system.ruby.DMA_Controller.I.deallocfwdfrom_in |         774    100.00%    100.00% |           0      0.00%    100.00%
system.ruby.DMA_Controller.I.deallocfwdfrom_in::total          774                      
system.ruby.DMA_Controller.M.allocTBE    |        1070    100.00%    100.00% |           0      0.00%    100.00%
system.ruby.DMA_Controller.M.allocTBE::total         1070                      
system.ruby.DMA_Controller.M.externalstoreMrespfrom_in |        1728    100.00%    100.00% |           0      0.00%    100.00%
system.ruby.DMA_Controller.M.externalstoreMrespfrom_in::total         1728                      
system.ruby.DMA_Controller.M_evict.Stallmandatory_in |       11318    100.00%    100.00% |           0      0.00%    100.00%
system.ruby.DMA_Controller.M_evict.Stallmandatory_in::total        11318                      
system.ruby.DMA_Controller.S.SloadSEvent |           9    100.00%    100.00% |           0      0.00%    100.00%
system.ruby.DMA_Controller.S.SloadSEvent::total            9                      
system.ruby.DMA_Controller.S.allocTBE    |           9    100.00%    100.00% |           0      0.00%    100.00%
system.ruby.DMA_Controller.S.allocTBE::total            9                      
system.ruby.DMA_Controller.S.deallocTBE  |         304    100.00%    100.00% |           0      0.00%    100.00%
system.ruby.DMA_Controller.S.deallocTBE::total          304                      
system.ruby.DMA_Controller.S.externalloadSrespfrom_in |           6    100.00%    100.00% |           0      0.00%    100.00%
system.ruby.DMA_Controller.S.externalloadSrespfrom_in::total            6                      
system.ruby.DMA_Controller.S_evict.Stallmandatory_in |          29    100.00%    100.00% |           0      0.00%    100.00%
system.ruby.DMA_Controller.S_evict.Stallmandatory_in::total           29                      
system.ruby.DMA_Controller.SloadSEvent   |           9    100.00%    100.00% |           0      0.00%    100.00%
system.ruby.DMA_Controller.SloadSEvent::total            9                      
system.ruby.DMA_Controller.Stallmandatory_in |       11347    100.00%    100.00% |           0      0.00%    100.00%
system.ruby.DMA_Controller.Stallmandatory_in::total        11347                      
system.ruby.DMA_Controller.allocI_load   |           6    100.00%    100.00% |           0      0.00%    100.00%
system.ruby.DMA_Controller.allocI_load::total            6                      
system.ruby.DMA_Controller.allocI_store  |        1728    100.00%    100.00% |           0      0.00%    100.00%
system.ruby.DMA_Controller.allocI_store::total         1728                      
system.ruby.DMA_Controller.allocTBE      |        1079    100.00%    100.00% |           0      0.00%    100.00%
system.ruby.DMA_Controller.allocTBE::total         1079                      
system.ruby.DMA_Controller.deallocTBE    |         304    100.00%    100.00% |           0      0.00%    100.00%
system.ruby.DMA_Controller.deallocTBE::total          304                      
system.ruby.DMA_Controller.deallocfwdfrom_in |         774    100.00%    100.00% |           0      0.00%    100.00%
system.ruby.DMA_Controller.deallocfwdfrom_in::total          774                      
system.ruby.DMA_Controller.externalloadSrespfrom_in |           6    100.00%    100.00% |           0      0.00%    100.00%
system.ruby.DMA_Controller.externalloadSrespfrom_in::total            6                      
system.ruby.DMA_Controller.externalstoreMrespfrom_in |        1728    100.00%    100.00% |           0      0.00%    100.00%
system.ruby.DMA_Controller.externalstoreMrespfrom_in::total         1728                      
system.ruby.Directory_Controller.I.allocTBE |      275043     29.99%     29.99% |      259042     28.25%     58.24% |      190455     20.77%     79.01% |      192535     20.99%    100.00%
system.ruby.Directory_Controller.I.allocTBE::total       917075                      
system.ruby.Directory_Controller.I.deallocTBE |      274061     30.01%     30.01% |      258067     28.26%     58.28% |      189481     20.75%     79.03% |      191521     20.97%    100.00%
system.ruby.Directory_Controller.I.deallocTBE::total       913130                      
system.ruby.Directory_Controller.I_GetSL1C1C1_0.Stallreqto_in |          17     65.38%     65.38% |           3     11.54%     76.92% |           4     15.38%     92.31% |           2      7.69%    100.00%
system.ruby.Directory_Controller.I_GetSL1C1C1_0.Stallreqto_in::total           26                      
system.ruby.Directory_Controller.M.allocTBE |       89178     29.25%     29.25% |       79827     26.18%     55.44% |       69012     22.64%     78.07% |       66849     21.93%    100.00%
system.ruby.Directory_Controller.M.allocTBE::total       304866                      
system.ruby.Directory_Controller.M.deallocTBE |       89538     29.23%     29.23% |       80177     26.18%     55.41% |       69358     22.64%     78.05% |       67222     21.95%    100.00%
system.ruby.Directory_Controller.M.deallocTBE::total       306295                      
system.ruby.Directory_Controller.M_GetM.Progress |        3055     74.10%     74.10% |         417     10.11%     84.21% |         321      7.79%     92.00% |         330      8.00%    100.00%
system.ruby.Directory_Controller.M_GetM.Progress::total         4123                      
system.ruby.Directory_Controller.M_GetM.Stallreqto_in |           0      0.00%      0.00% |           1    100.00%    100.00% |           0      0.00%    100.00% |           0      0.00%    100.00%
system.ruby.Directory_Controller.M_GetM.Stallreqto_in::total            1                      
system.ruby.Directory_Controller.M_GetS.Progress |       19124     40.24%     40.24% |       12390     26.07%     66.32% |        8566     18.03%     84.34% |        7440     15.66%    100.00%
system.ruby.Directory_Controller.M_GetS.Progress::total        47520                      
system.ruby.Directory_Controller.M_GetS.Stallreqto_in |           1      5.88%      5.88% |           0      0.00%      5.88% |           0      0.00%      5.88% |          16     94.12%    100.00%
system.ruby.Directory_Controller.M_GetS.Stallreqto_in::total           17                      
system.ruby.Directory_Controller.M_GetS_WBL1C1C1_0.Stallreqto_in |          42     21.11%     21.11% |          37     18.59%     39.70% |          43     21.61%     61.31% |          77     38.69%    100.00%
system.ruby.Directory_Controller.M_GetS_WBL1C1C1_0.Stallreqto_in::total          199                      
system.ruby.Directory_Controller.Progress |       44996     41.88%     41.88% |       23042     21.44%     63.32% |       21504     20.01%     83.33% |       17908     16.67%    100.00%
system.ruby.Directory_Controller.Progress::total       107450                      
system.ruby.Directory_Controller.S.allocTBE |      468365     30.97%     30.97% |      357535     23.64%     54.61% |      326440     21.59%     76.20% |      359984     23.80%    100.00%
system.ruby.Directory_Controller.S.allocTBE::total      1512324                      
system.ruby.Directory_Controller.S.deallocTBE |      468987     30.96%     30.96% |      358160     23.64%     54.60% |      327068     21.59%     76.19% |      360625     23.81%    100.00%
system.ruby.Directory_Controller.S.deallocTBE::total      1514840                      
system.ruby.Directory_Controller.S_GetM.Progress |       22817     40.89%     40.89% |       10235     18.34%     59.23% |       12617     22.61%     81.83% |       10138     18.17%    100.00%
system.ruby.Directory_Controller.S_GetM.Progress::total        55807                      
system.ruby.Directory_Controller.S_GetM.Stallreqto_in |           8     50.00%     50.00% |           0      0.00%     50.00% |           1      6.25%     56.25% |           7     43.75%    100.00%
system.ruby.Directory_Controller.S_GetM.Stallreqto_in::total           16                      
system.ruby.Directory_Controller.S_GetM.allocTBE |       17676     42.90%     42.90% |       10289     24.97%     67.88% |        7223     17.53%     85.41% |        6012     14.59%    100.00%
system.ruby.Directory_Controller.S_GetM.allocTBE::total        41200                      
system.ruby.Directory_Controller.S_GetM.deallocTBE |       17676     42.90%     42.90% |       10289     24.97%     67.88% |        7223     17.53%     85.41% |        6012     14.59%    100.00%
system.ruby.Directory_Controller.S_GetM.deallocTBE::total        41200                      
system.ruby.Directory_Controller.S_GetML1C1C1_0.Stallreqto_in |           7     77.78%     77.78% |           0      0.00%     77.78% |           0      0.00%     77.78% |           2     22.22%    100.00%
system.ruby.Directory_Controller.S_GetML1C1C1_0.Stallreqto_in::total            9                      
system.ruby.Directory_Controller.S_GetSL1C1C1_0.Stallreqto_in |          40     44.94%     44.94% |          12     13.48%     58.43% |          25     28.09%     86.52% |          12     13.48%    100.00%
system.ruby.Directory_Controller.S_GetSL1C1C1_0.Stallreqto_in::total           89                      
system.ruby.Directory_Controller.Stallreqto_in |         115     32.21%     32.21% |          53     14.85%     47.06% |          73     20.45%     67.51% |         116     32.49%    100.00%
system.ruby.Directory_Controller.Stallreqto_in::total          357                      
system.ruby.Directory_Controller.allocTBE |      850262     30.63%     30.63% |      706693     25.46%     56.10% |      593130     21.37%     77.47% |      625380     22.53%    100.00%
system.ruby.Directory_Controller.allocTBE::total      2775465                      
system.ruby.Directory_Controller.deallocTBE |      850262     30.63%     30.63% |      706693     25.46%     56.10% |      593130     21.37%     77.47% |      625380     22.53%    100.00%
system.ruby.Directory_Controller.deallocTBE::total      2775465                      
system.ruby.IFETCH.hit_latency_hist_seqr::bucket_size            1                      
system.ruby.IFETCH.hit_latency_hist_seqr::max_bucket            9                      
system.ruby.IFETCH.hit_latency_hist_seqr::samples    102037851                      
system.ruby.IFETCH.hit_latency_hist_seqr |   102037851    100.00%    100.00% |           0      0.00%    100.00% |           0      0.00%    100.00% |           0      0.00%    100.00% |           0      0.00%    100.00% |           0      0.00%    100.00% |           0      0.00%    100.00% |           0      0.00%    100.00% |           0      0.00%    100.00% |           0      0.00%    100.00%
system.ruby.IFETCH.hit_latency_hist_seqr::total    102037851                      
system.ruby.IFETCH.latency_hist_seqr::bucket_size            1                      
system.ruby.IFETCH.latency_hist_seqr::max_bucket            9                      
system.ruby.IFETCH.latency_hist_seqr::samples    102661473                      
system.ruby.IFETCH.latency_hist_seqr     |   102661473    100.00%    100.00% |           0      0.00%    100.00% |           0      0.00%    100.00% |           0      0.00%    100.00% |           0      0.00%    100.00% |           0      0.00%    100.00% |           0      0.00%    100.00% |           0      0.00%    100.00% |           0      0.00%    100.00% |           0      0.00%    100.00%
system.ruby.IFETCH.latency_hist_seqr::total    102661473                      
system.ruby.IFETCH.miss_latency_hist_seqr::bucket_size            1                      
system.ruby.IFETCH.miss_latency_hist_seqr::max_bucket            9                      
system.ruby.IFETCH.miss_latency_hist_seqr::samples       623622                      
system.ruby.IFETCH.miss_latency_hist_seqr |      623622    100.00%    100.00% |           0      0.00%    100.00% |           0      0.00%    100.00% |           0      0.00%    100.00% |           0      0.00%    100.00% |           0      0.00%    100.00% |           0      0.00%    100.00% |           0      0.00%    100.00% |           0      0.00%    100.00% |           0      0.00%    100.00%
system.ruby.IFETCH.miss_latency_hist_seqr::total       623622                      
system.ruby.L1Cache_Controller.I.allocI_load |      253345     21.65%     21.65% |      253064     21.62%     43.27% |      356893     30.50%     73.77% |      306943     26.23%    100.00%
system.ruby.L1Cache_Controller.I.allocI_load::total      1170245                      
system.ruby.L1Cache_Controller.I.allocI_store |       38323     19.98%     19.98% |       28804     15.02%     35.00% |       51972     27.10%     62.10% |       72696     37.90%    100.00%
system.ruby.L1Cache_Controller.I.allocI_store::total       191795                      
system.ruby.L1Cache_Controller.I.deallocfwdfrom_in |      290722     21.41%     21.41% |      280860     20.68%     42.09% |      407867     30.03%     72.12% |      378620     27.88%    100.00%
system.ruby.L1Cache_Controller.I.deallocfwdfrom_in::total      1358069                      
system.ruby.L1Cache_Controller.I_store.Progress |         284     18.73%     18.73% |         763     50.33%     69.06% |         398     26.25%     95.32% |          71      4.68%    100.00%
system.ruby.L1Cache_Controller.I_store.Progress::total         1516                      
system.ruby.L1Cache_Controller.I_store.Stallfwdfrom_in |           0      0.00%      0.00% |           0      0.00%      0.00% |           3     60.00%     60.00% |           2     40.00%    100.00%
system.ruby.L1Cache_Controller.I_store.Stallfwdfrom_in::total            5                      
system.ruby.L1Cache_Controller.M.MloadMEvent |     4257358     27.77%     27.77% |     2866542     18.70%     46.47% |     4395292     28.67%     75.14% |     3810382     24.86%    100.00%
system.ruby.L1Cache_Controller.M.MloadMEvent::total     15329574                      
system.ruby.L1Cache_Controller.M.MstoreMEvent |     4263823     27.46%     27.46% |     3038901     19.57%     47.03% |     4183427     26.94%     73.97% |     4041325     26.03%    100.00%
system.ruby.L1Cache_Controller.M.MstoreMEvent::total     15527476                      
system.ruby.L1Cache_Controller.M.allocTBE |       92368     30.40%     30.40% |       46147     15.19%     45.60% |       73859     24.31%     69.91% |       91420     30.09%    100.00%
system.ruby.L1Cache_Controller.M.allocTBE::total       303794                      
system.ruby.L1Cache_Controller.M.externalstoreMrespfrom_in |       92534     30.38%     30.38% |       46264     15.19%     45.57% |       74103     24.33%     69.90% |       91664     30.10%    100.00%
system.ruby.L1Cache_Controller.M.externalstoreMrespfrom_in::total       304565                      
system.ruby.L1Cache_Controller.M_evict.Stallmandatory_in |         141     20.83%     20.83% |         145     21.42%     42.25% |         220     32.50%     74.74% |         171     25.26%    100.00%
system.ruby.L1Cache_Controller.M_evict.Stallmandatory_in::total          677                      
system.ruby.L1Cache_Controller.M_evict_x_I.Progress |           1    100.00%    100.00% |           0      0.00%    100.00% |           0      0.00%    100.00% |           0      0.00%    100.00%
system.ruby.L1Cache_Controller.M_evict_x_I.Progress::total            1                      
system.ruby.L1Cache_Controller.M_evict_x_I.Stallmandatory_in |           3    100.00%    100.00% |           0      0.00%    100.00% |           0      0.00%    100.00% |           0      0.00%    100.00%
system.ruby.L1Cache_Controller.M_evict_x_I.Stallmandatory_in::total            3                      
system.ruby.L1Cache_Controller.MloadMEvent |     4257358     27.77%     27.77% |     2866542     18.70%     46.47% |     4395292     28.67%     75.14% |     3810382     24.86%    100.00%
system.ruby.L1Cache_Controller.MloadMEvent::total     15329574                      
system.ruby.L1Cache_Controller.MstoreMEvent |     4263823     27.46%     27.46% |     3038901     19.57%     47.03% |     4183427     26.94%     73.97% |     4041325     26.03%    100.00%
system.ruby.L1Cache_Controller.MstoreMEvent::total     15527476                      
system.ruby.L1Cache_Controller.Progress  |      135625     64.65%     64.65% |       23128     11.02%     75.67% |       27624     13.17%     88.84% |       23408     11.16%    100.00%
system.ruby.L1Cache_Controller.Progress::total       209785                      
system.ruby.L1Cache_Controller.S.SloadSEvent |    23558158     21.59%     21.59% |    20439200     18.73%     40.32% |    34165448     31.31%     71.63% |    30956893     28.37%    100.00%
system.ruby.L1Cache_Controller.S.SloadSEvent::total    109119699                      
system.ruby.L1Cache_Controller.S.allocTBE |      283550     23.35%     23.35% |      256785     21.15%     44.50% |      361984     29.81%     74.31% |      311942     25.69%    100.00%
system.ruby.L1Cache_Controller.S.allocTBE::total      1214261                      
system.ruby.L1Cache_Controller.S.deallocTBE |       30985     65.62%     65.62% |        4612      9.77%     75.39% |        5845     12.38%     87.77% |        5774     12.23%    100.00%
system.ruby.L1Cache_Controller.S.deallocTBE::total        47216                      
system.ruby.L1Cache_Controller.S.externalloadSrespfrom_in |      253345     21.65%     21.65% |      253064     21.62%     43.27% |      356893     30.50%     73.77% |      306943     26.23%    100.00%
system.ruby.L1Cache_Controller.S.externalloadSrespfrom_in::total      1170245                      
system.ruby.L1Cache_Controller.S_evict.Stallmandatory_in |         101     18.98%     18.98% |         109     20.49%     39.47% |         194     36.47%     75.94% |         128     24.06%    100.00%
system.ruby.L1Cache_Controller.S_evict.Stallmandatory_in::total          532                      
system.ruby.L1Cache_Controller.S_evict_x_I.Progress |           0      0.00%      0.00% |           0      0.00%      0.00% |           0      0.00%      0.00% |           1    100.00%    100.00%
system.ruby.L1Cache_Controller.S_evict_x_I.Progress::total            1                      
system.ruby.L1Cache_Controller.S_evict_x_I.Stallmandatory_in |           0      0.00%      0.00% |           0      0.00%      0.00% |           0      0.00%      0.00% |           4    100.00%    100.00%
system.ruby.L1Cache_Controller.S_evict_x_I.Stallmandatory_in::total            4                      
system.ruby.L1Cache_Controller.S_store.Progress |      135340     64.98%     64.98% |       22365     10.74%     75.72% |       27226     13.07%     88.80% |       23336     11.20%    100.00%
system.ruby.L1Cache_Controller.S_store.Progress::total       208267                      
system.ruby.L1Cache_Controller.S_store.Stallfwdfrom_in |           0      0.00%      0.00% |           0      0.00%      0.00% |           1     20.00%     20.00% |           4     80.00%    100.00%
system.ruby.L1Cache_Controller.S_store.Stallfwdfrom_in::total            5                      
system.ruby.L1Cache_Controller.SloadSEvent |    23558158     21.59%     21.59% |    20439200     18.73%     40.32% |    34165448     31.31%     71.63% |    30956893     28.37%    100.00%
system.ruby.L1Cache_Controller.SloadSEvent::total    109119699                      
system.ruby.L1Cache_Controller.Stallfwdfrom_in |           0      0.00%      0.00% |           0      0.00%      0.00% |           4     40.00%     40.00% |           6     60.00%    100.00%
system.ruby.L1Cache_Controller.Stallfwdfrom_in::total           10                      
system.ruby.L1Cache_Controller.Stallmandatory_in |         245     20.15%     20.15% |         254     20.89%     41.04% |         414     34.05%     75.08% |         303     24.92%    100.00%
system.ruby.L1Cache_Controller.Stallmandatory_in::total         1216                      
system.ruby.L1Cache_Controller.allocI_load |      253345     21.65%     21.65% |      253064     21.62%     43.27% |      356893     30.50%     73.77% |      306943     26.23%    100.00%
system.ruby.L1Cache_Controller.allocI_load::total      1170245                      
system.ruby.L1Cache_Controller.allocI_store |       38323     19.98%     19.98% |       28804     15.02%     35.00% |       51972     27.10%     62.10% |       72696     37.90%    100.00%
system.ruby.L1Cache_Controller.allocI_store::total       191795                      
system.ruby.L1Cache_Controller.allocTBE  |      375918     24.76%     24.76% |      302932     19.96%     44.72% |      435843     28.71%     73.43% |      403362     26.57%    100.00%
system.ruby.L1Cache_Controller.allocTBE::total      1518055                      
system.ruby.L1Cache_Controller.deallocTBE |       30985     65.62%     65.62% |        4612      9.77%     75.39% |        5845     12.38%     87.77% |        5774     12.23%    100.00%
system.ruby.L1Cache_Controller.deallocTBE::total        47216                      
system.ruby.L1Cache_Controller.deallocfwdfrom_in |      290722     21.41%     21.41% |      280860     20.68%     42.09% |      407867     30.03%     72.12% |      378620     27.88%    100.00%
system.ruby.L1Cache_Controller.deallocfwdfrom_in::total      1358069                      
system.ruby.L1Cache_Controller.externalloadSrespfrom_in |      253345     21.65%     21.65% |      253064     21.62%     43.27% |      356893     30.50%     73.77% |      306943     26.23%    100.00%
system.ruby.L1Cache_Controller.externalloadSrespfrom_in::total      1170245                      
system.ruby.L1Cache_Controller.externalstoreMrespfrom_in |       92534     30.38%     30.38% |       46264     15.19%     45.57% |       74103     24.33%     69.90% |       91664     30.10%    100.00%
system.ruby.L1Cache_Controller.externalstoreMrespfrom_in::total       304565                      
system.ruby.LD.hit_latency_hist_seqr::bucket_size            1                      
system.ruby.LD.hit_latency_hist_seqr::max_bucket            9                      
system.ruby.LD.hit_latency_hist_seqr::samples     22411422                      
system.ruby.LD.hit_latency_hist_seqr     |    22411422    100.00%    100.00% |           0      0.00%    100.00% |           0      0.00%    100.00% |           0      0.00%    100.00% |           0      0.00%    100.00% |           0      0.00%    100.00% |           0      0.00%    100.00% |           0      0.00%    100.00% |           0      0.00%    100.00% |           0      0.00%    100.00%
system.ruby.LD.hit_latency_hist_seqr::total     22411422                      
system.ruby.LD.latency_hist_seqr::bucket_size            1                      
system.ruby.LD.latency_hist_seqr::max_bucket            9                      
system.ruby.LD.latency_hist_seqr::samples     22958045                      
system.ruby.LD.latency_hist_seqr         |    22958045    100.00%    100.00% |           0      0.00%    100.00% |           0      0.00%    100.00% |           0      0.00%    100.00% |           0      0.00%    100.00% |           0      0.00%    100.00% |           0      0.00%    100.00% |           0      0.00%    100.00% |           0      0.00%    100.00% |           0      0.00%    100.00%
system.ruby.LD.latency_hist_seqr::total      22958045                      
system.ruby.LD.miss_latency_hist_seqr::bucket_size            1                      
system.ruby.LD.miss_latency_hist_seqr::max_bucket            9                      
system.ruby.LD.miss_latency_hist_seqr::samples       546623                      
system.ruby.LD.miss_latency_hist_seqr    |      546623    100.00%    100.00% |           0      0.00%    100.00% |           0      0.00%    100.00% |           0      0.00%    100.00% |           0      0.00%    100.00% |           0      0.00%    100.00% |           0      0.00%    100.00% |           0      0.00%    100.00% |           0      0.00%    100.00% |           0      0.00%    100.00%
system.ruby.LD.miss_latency_hist_seqr::total       546623                      
system.ruby.Locked_RMW_Read.hit_latency_hist_seqr::bucket_size            1                      
system.ruby.Locked_RMW_Read.hit_latency_hist_seqr::max_bucket            9                      
system.ruby.Locked_RMW_Read.hit_latency_hist_seqr::samples       280336                      
system.ruby.Locked_RMW_Read.hit_latency_hist_seqr |      280336    100.00%    100.00% |           0      0.00%    100.00% |           0      0.00%    100.00% |           0      0.00%    100.00% |           0      0.00%    100.00% |           0      0.00%    100.00% |           0      0.00%    100.00% |           0      0.00%    100.00% |           0      0.00%    100.00% |           0      0.00%    100.00%
system.ruby.Locked_RMW_Read.hit_latency_hist_seqr::total       280336                      
system.ruby.Locked_RMW_Read.latency_hist_seqr::bucket_size            1                      
system.ruby.Locked_RMW_Read.latency_hist_seqr::max_bucket            9                      
system.ruby.Locked_RMW_Read.latency_hist_seqr::samples       322427                      
system.ruby.Locked_RMW_Read.latency_hist_seqr |      322427    100.00%    100.00% |           0      0.00%    100.00% |           0      0.00%    100.00% |           0      0.00%    100.00% |           0      0.00%    100.00% |           0      0.00%    100.00% |           0      0.00%    100.00% |           0      0.00%    100.00% |           0      0.00%    100.00% |           0      0.00%    100.00%
system.ruby.Locked_RMW_Read.latency_hist_seqr::total       322427                      
system.ruby.Locked_RMW_Read.miss_latency_hist_seqr::bucket_size            1                      
system.ruby.Locked_RMW_Read.miss_latency_hist_seqr::max_bucket            9                      
system.ruby.Locked_RMW_Read.miss_latency_hist_seqr::samples        42091                      
system.ruby.Locked_RMW_Read.miss_latency_hist_seqr |       42091    100.00%    100.00% |           0      0.00%    100.00% |           0      0.00%    100.00% |           0      0.00%    100.00% |           0      0.00%    100.00% |           0      0.00%    100.00% |           0      0.00%    100.00% |           0      0.00%    100.00% |           0      0.00%    100.00% |           0      0.00%    100.00%
system.ruby.Locked_RMW_Read.miss_latency_hist_seqr::total        42091                      
system.ruby.Locked_RMW_Write.hit_latency_hist_seqr::bucket_size            1                      
system.ruby.Locked_RMW_Write.hit_latency_hist_seqr::max_bucket            9                      
system.ruby.Locked_RMW_Write.hit_latency_hist_seqr::samples       322427                      
system.ruby.Locked_RMW_Write.hit_latency_hist_seqr |      322427    100.00%    100.00% |           0      0.00%    100.00% |           0      0.00%    100.00% |           0      0.00%    100.00% |           0      0.00%    100.00% |           0      0.00%    100.00% |           0      0.00%    100.00% |           0      0.00%    100.00% |           0      0.00%    100.00% |           0      0.00%    100.00%
system.ruby.Locked_RMW_Write.hit_latency_hist_seqr::total       322427                      
system.ruby.Locked_RMW_Write.latency_hist_seqr::bucket_size            1                      
system.ruby.Locked_RMW_Write.latency_hist_seqr::max_bucket            9                      
system.ruby.Locked_RMW_Write.latency_hist_seqr::samples       322427                      
system.ruby.Locked_RMW_Write.latency_hist_seqr |      322427    100.00%    100.00% |           0      0.00%    100.00% |           0      0.00%    100.00% |           0      0.00%    100.00% |           0      0.00%    100.00% |           0      0.00%    100.00% |           0      0.00%    100.00% |           0      0.00%    100.00% |           0      0.00%    100.00% |           0      0.00%    100.00%
system.ruby.Locked_RMW_Write.latency_hist_seqr::total       322427                      
system.ruby.RMW_Read.hit_latency_hist_seqr::bucket_size            1                      
system.ruby.RMW_Read.hit_latency_hist_seqr::max_bucket            9                      
system.ruby.RMW_Read.hit_latency_hist_seqr::samples       772670                      
system.ruby.RMW_Read.hit_latency_hist_seqr |      772670    100.00%    100.00% |           0      0.00%    100.00% |           0      0.00%    100.00% |           0      0.00%    100.00% |           0      0.00%    100.00% |           0      0.00%    100.00% |           0      0.00%    100.00% |           0      0.00%    100.00% |           0      0.00%    100.00% |           0      0.00%    100.00%
system.ruby.RMW_Read.hit_latency_hist_seqr::total       772670                      
system.ruby.RMW_Read.latency_hist_seqr::bucket_size            1                      
system.ruby.RMW_Read.latency_hist_seqr::max_bucket            9                      
system.ruby.RMW_Read.latency_hist_seqr::samples       794044                      
system.ruby.RMW_Read.latency_hist_seqr   |      794044    100.00%    100.00% |           0      0.00%    100.00% |           0      0.00%    100.00% |           0      0.00%    100.00% |           0      0.00%    100.00% |           0      0.00%    100.00% |           0      0.00%    100.00% |           0      0.00%    100.00% |           0      0.00%    100.00% |           0      0.00%    100.00%
system.ruby.RMW_Read.latency_hist_seqr::total       794044                      
system.ruby.RMW_Read.miss_latency_hist_seqr::bucket_size            1                      
system.ruby.RMW_Read.miss_latency_hist_seqr::max_bucket            9                      
system.ruby.RMW_Read.miss_latency_hist_seqr::samples        21374                      
system.ruby.RMW_Read.miss_latency_hist_seqr |       21374    100.00%    100.00% |           0      0.00%    100.00% |           0      0.00%    100.00% |           0      0.00%    100.00% |           0      0.00%    100.00% |           0      0.00%    100.00% |           0      0.00%    100.00% |           0      0.00%    100.00% |           0      0.00%    100.00% |           0      0.00%    100.00%
system.ruby.RMW_Read.miss_latency_hist_seqr::total        21374                      
system.ruby.ST.hit_latency_hist_seqr::bucket_size            1                      
system.ruby.ST.hit_latency_hist_seqr::max_bucket            9                      
system.ruby.ST.hit_latency_hist_seqr::samples     14152043                      
system.ruby.ST.hit_latency_hist_seqr     |    14152043    100.00%    100.00% |           0      0.00%    100.00% |           0      0.00%    100.00% |           0      0.00%    100.00% |           0      0.00%    100.00% |           0      0.00%    100.00% |           0      0.00%    100.00% |           0      0.00%    100.00% |           0      0.00%    100.00% |           0      0.00%    100.00%
system.ruby.ST.hit_latency_hist_seqr::total     14152043                      
system.ruby.ST.latency_hist_seqr::bucket_size            1                      
system.ruby.ST.latency_hist_seqr::max_bucket            9                      
system.ruby.ST.latency_hist_seqr::samples     14393143                      
system.ruby.ST.latency_hist_seqr         |    14393143    100.00%    100.00% |           0      0.00%    100.00% |           0      0.00%    100.00% |           0      0.00%    100.00% |           0      0.00%    100.00% |           0      0.00%    100.00% |           0      0.00%    100.00% |           0      0.00%    100.00% |           0      0.00%    100.00% |           0      0.00%    100.00%
system.ruby.ST.latency_hist_seqr::total      14393143                      
system.ruby.ST.miss_latency_hist_seqr::bucket_size            1                      
system.ruby.ST.miss_latency_hist_seqr::max_bucket            9                      
system.ruby.ST.miss_latency_hist_seqr::samples       241100                      
system.ruby.ST.miss_latency_hist_seqr    |      241100    100.00%    100.00% |           0      0.00%    100.00% |           0      0.00%    100.00% |           0      0.00%    100.00% |           0      0.00%    100.00% |           0      0.00%    100.00% |           0      0.00%    100.00% |           0      0.00%    100.00% |           0      0.00%    100.00% |           0      0.00%    100.00%
system.ruby.ST.miss_latency_hist_seqr::total       241100                      
system.ruby.dir_cntrl0.fwdFrom.avg_buf_msgs     0.000246                       # Average number of messages in buffer
system.ruby.dir_cntrl0.fwdFrom.avg_stall_time  2999.997614                       # Average number of cycles messages are stalled in this MB
system.ruby.dir_cntrl0.reqTo.avg_buf_msgs     0.000082                       # Average number of messages in buffer
system.ruby.dir_cntrl0.reqTo.avg_stall_time  4002.067403                       # Average number of cycles messages are stalled in this MB
system.ruby.dir_cntrl0.requestToMemory.avg_buf_msgs     0.000051                       # Average number of messages in buffer
system.ruby.dir_cntrl0.requestToMemory.avg_stall_time   499.999999                       # Average number of cycles messages are stalled in this MB
system.ruby.dir_cntrl0.respFrom.avg_buf_msgs     0.000258                       # Average number of messages in buffer
system.ruby.dir_cntrl0.respFrom.avg_stall_time  3000.057307                       # Average number of cycles messages are stalled in this MB
system.ruby.dir_cntrl0.respTo.avg_buf_msgs     0.000006                       # Average number of messages in buffer
system.ruby.dir_cntrl0.respTo.avg_stall_time  9244.735462                       # Average number of cycles messages are stalled in this MB
system.ruby.dir_cntrl0.responseFromMemory.avg_buf_msgs     0.000051                       # Average number of messages in buffer
system.ruby.dir_cntrl0.responseFromMemory.avg_stall_time   499.999991                       # Average number of cycles messages are stalled in this MB
system.ruby.dir_cntrl1.fwdFrom.avg_buf_msgs     0.000203                       # Average number of messages in buffer
system.ruby.dir_cntrl1.fwdFrom.avg_stall_time  2999.995419                       # Average number of cycles messages are stalled in this MB
system.ruby.dir_cntrl1.reqTo.avg_buf_msgs     0.000069                       # Average number of messages in buffer
system.ruby.dir_cntrl1.reqTo.avg_stall_time  3975.898260                       # Average number of cycles messages are stalled in this MB
system.ruby.dir_cntrl1.requestToMemory.avg_buf_msgs     0.000044                       # Average number of messages in buffer
system.ruby.dir_cntrl1.requestToMemory.avg_stall_time   499.999989                       # Average number of cycles messages are stalled in this MB
system.ruby.dir_cntrl1.respFrom.avg_buf_msgs     0.000216                       # Average number of messages in buffer
system.ruby.dir_cntrl1.respFrom.avg_stall_time  3000.039124                       # Average number of cycles messages are stalled in this MB
system.ruby.dir_cntrl1.respTo.avg_buf_msgs     0.000003                       # Average number of messages in buffer
system.ruby.dir_cntrl1.respTo.avg_stall_time 12259.907580                       # Average number of cycles messages are stalled in this MB
system.ruby.dir_cntrl1.responseFromMemory.avg_buf_msgs     0.000044                       # Average number of messages in buffer
system.ruby.dir_cntrl1.responseFromMemory.avg_stall_time   499.999981                       # Average number of cycles messages are stalled in this MB
system.ruby.dir_cntrl2.fwdFrom.avg_buf_msgs     0.000170                       # Average number of messages in buffer
system.ruby.dir_cntrl2.fwdFrom.avg_stall_time  2999.994963                       # Average number of cycles messages are stalled in this MB
system.ruby.dir_cntrl2.reqTo.avg_buf_msgs     0.000058                       # Average number of messages in buffer
system.ruby.dir_cntrl2.reqTo.avg_stall_time  4057.674362                       # Average number of cycles messages are stalled in this MB
system.ruby.dir_cntrl2.requestToMemory.avg_buf_msgs     0.000037                       # Average number of messages in buffer
system.ruby.dir_cntrl2.requestToMemory.avg_stall_time   499.999968                       # Average number of cycles messages are stalled in this MB
system.ruby.dir_cntrl2.respFrom.avg_buf_msgs     0.000184                       # Average number of messages in buffer
system.ruby.dir_cntrl2.respFrom.avg_stall_time  3000.083782                       # Average number of cycles messages are stalled in this MB
system.ruby.dir_cntrl2.respTo.avg_buf_msgs     0.000003                       # Average number of messages in buffer
system.ruby.dir_cntrl2.respTo.avg_stall_time 14117.960794                       # Average number of cycles messages are stalled in this MB
system.ruby.dir_cntrl2.responseFromMemory.avg_buf_msgs     0.000037                       # Average number of messages in buffer
system.ruby.dir_cntrl2.responseFromMemory.avg_stall_time   499.999960                       # Average number of cycles messages are stalled in this MB
system.ruby.dir_cntrl3.fwdFrom.avg_buf_msgs     0.000180                       # Average number of messages in buffer
system.ruby.dir_cntrl3.fwdFrom.avg_stall_time  2999.998473                       # Average number of cycles messages are stalled in this MB
system.ruby.dir_cntrl3.reqTo.avg_buf_msgs     0.000061                       # Average number of messages in buffer
system.ruby.dir_cntrl3.reqTo.avg_stall_time  4034.446009                       # Average number of cycles messages are stalled in this MB
system.ruby.dir_cntrl3.requestToMemory.avg_buf_msgs     0.000038                       # Average number of messages in buffer
system.ruby.dir_cntrl3.requestToMemory.avg_stall_time   499.999978                       # Average number of cycles messages are stalled in this MB
system.ruby.dir_cntrl3.respFrom.avg_buf_msgs     0.000193                       # Average number of messages in buffer
system.ruby.dir_cntrl3.respFrom.avg_stall_time  3000.108348                       # Average number of cycles messages are stalled in this MB
system.ruby.dir_cntrl3.respTo.avg_buf_msgs     0.000002                       # Average number of messages in buffer
system.ruby.dir_cntrl3.respTo.avg_stall_time 14913.427124                       # Average number of cycles messages are stalled in this MB
system.ruby.dir_cntrl3.responseFromMemory.avg_buf_msgs     0.000038                       # Average number of messages in buffer
system.ruby.dir_cntrl3.responseFromMemory.avg_stall_time   499.999970                       # Average number of cycles messages are stalled in this MB
system.ruby.dma_cntrl0.cache.demand_accesses            0                       # Number of cache demand accesses
system.ruby.dma_cntrl0.cache.demand_hits            0                       # Number of cache demand hits
system.ruby.dma_cntrl0.cache.demand_misses            0                       # Number of cache demand misses
system.ruby.dma_cntrl0.fully_busy_cycles         2159                       # cycles for which number of transistions == max transitions
system.ruby.dma_cntrl0.fwdFrom.avg_buf_msgs     0.000000                       # Average number of messages in buffer
system.ruby.dma_cntrl0.fwdFrom.avg_stall_time  6491.438394                       # Average number of cycles messages are stalled in this MB
system.ruby.dma_cntrl0.mandatoryQueue.avg_buf_msgs     0.000014                       # Average number of messages in buffer
system.ruby.dma_cntrl0.mandatoryQueue.avg_stall_time 166134.641084                       # Average number of cycles messages are stalled in this MB
system.ruby.dma_cntrl0.reqTo.avg_buf_msgs     0.000022                       # Average number of messages in buffer
system.ruby.dma_cntrl0.reqTo.avg_stall_time  9373.661672                       # Average number of cycles messages are stalled in this MB
system.ruby.dma_cntrl0.respFrom.avg_buf_msgs     0.000000                       # Average number of messages in buffer
system.ruby.dma_cntrl0.respFrom.avg_stall_time 128930.240125                       # Average number of cycles messages are stalled in this MB
system.ruby.dma_cntrl0.respTo.avg_buf_msgs     0.000000                       # Average number of messages in buffer
system.ruby.dma_cntrl0.respTo.avg_stall_time   998.270173                       # Average number of cycles messages are stalled in this MB
system.ruby.hit_latency_hist_seqr::bucket_size            1                      
system.ruby.hit_latency_hist_seqr::max_bucket            9                      
system.ruby.hit_latency_hist_seqr::samples    139976749                      
system.ruby.hit_latency_hist_seqr        |   139976749    100.00%    100.00% |           0      0.00%    100.00% |           0      0.00%    100.00% |           0      0.00%    100.00% |           0      0.00%    100.00% |           0      0.00%    100.00% |           0      0.00%    100.00% |           0      0.00%    100.00% |           0      0.00%    100.00% |           0      0.00%    100.00%
system.ruby.hit_latency_hist_seqr::total    139976749                      
system.ruby.io_controller.cache.demand_accesses            0                       # Number of cache demand accesses
system.ruby.io_controller.cache.demand_hits            0                       # Number of cache demand hits
system.ruby.io_controller.cache.demand_misses            0                       # Number of cache demand misses
system.ruby.l1_cntrl0.cache.demand_accesses            0                       # Number of cache demand accesses
system.ruby.l1_cntrl0.cache.demand_hits             0                       # Number of cache demand hits
system.ruby.l1_cntrl0.cache.demand_misses            0                       # Number of cache demand misses
system.ruby.l1_cntrl0.fully_busy_cycles             4                       # cycles for which number of transistions == max transitions
system.ruby.l1_cntrl0.fwdFrom.avg_buf_msgs     0.000032                       # Average number of messages in buffer
system.ruby.l1_cntrl0.fwdFrom.avg_stall_time  6317.360786                       # Average number of cycles messages are stalled in this MB
system.ruby.l1_cntrl0.mandatoryQueue.avg_buf_msgs     0.003898                       # Average number of messages in buffer
system.ruby.l1_cntrl0.mandatoryQueue.avg_stall_time   534.118110                       # Average number of cycles messages are stalled in this MB
system.ruby.l1_cntrl0.reqTo.avg_buf_msgs     0.000062                       # Average number of messages in buffer
system.ruby.l1_cntrl0.reqTo.avg_stall_time   499.947001                       # Average number of cycles messages are stalled in this MB
system.ruby.l1_cntrl0.respFrom.avg_buf_msgs     0.000042                       # Average number of messages in buffer
system.ruby.l1_cntrl0.respFrom.avg_stall_time 16495.880714                       # Average number of cycles messages are stalled in this MB
system.ruby.l1_cntrl0.respTo.avg_buf_msgs     0.000011                       # Average number of messages in buffer
system.ruby.l1_cntrl0.respTo.avg_stall_time   999.882203                       # Average number of cycles messages are stalled in this MB
system.ruby.l1_cntrl1.cache.demand_accesses            0                       # Number of cache demand accesses
system.ruby.l1_cntrl1.cache.demand_hits             0                       # Number of cache demand hits
system.ruby.l1_cntrl1.cache.demand_misses            0                       # Number of cache demand misses
system.ruby.l1_cntrl1.fully_busy_cycles             1                       # cycles for which number of transistions == max transitions
system.ruby.l1_cntrl1.fwdFrom.avg_buf_msgs     0.000028                       # Average number of messages in buffer
system.ruby.l1_cntrl1.fwdFrom.avg_stall_time  7070.552758                       # Average number of cycles messages are stalled in this MB
system.ruby.l1_cntrl1.mandatoryQueue.avg_buf_msgs     0.003229                       # Average number of messages in buffer
system.ruby.l1_cntrl1.mandatoryQueue.avg_stall_time   528.729365                       # Average number of cycles messages are stalled in this MB
system.ruby.l1_cntrl1.reqTo.avg_buf_msgs     0.000054                       # Average number of messages in buffer
system.ruby.l1_cntrl1.reqTo.avg_stall_time   499.999861                       # Average number of cycles messages are stalled in this MB
system.ruby.l1_cntrl1.respFrom.avg_buf_msgs     0.000030                       # Average number of messages in buffer
system.ruby.l1_cntrl1.respFrom.avg_stall_time 17491.096479                       # Average number of cycles messages are stalled in this MB
system.ruby.l1_cntrl1.respTo.avg_buf_msgs     0.000011                       # Average number of messages in buffer
system.ruby.l1_cntrl1.respTo.avg_stall_time   999.891233                       # Average number of cycles messages are stalled in this MB
system.ruby.l1_cntrl2.cache.demand_accesses            0                       # Number of cache demand accesses
system.ruby.l1_cntrl2.cache.demand_hits             0                       # Number of cache demand hits
system.ruby.l1_cntrl2.cache.demand_misses            0                       # Number of cache demand misses
system.ruby.l1_cntrl2.fully_busy_cycles             1                       # cycles for which number of transistions == max transitions
system.ruby.l1_cntrl2.fwdFrom.avg_buf_msgs     0.000041                       # Average number of messages in buffer
system.ruby.l1_cntrl2.fwdFrom.avg_stall_time  6531.575768                       # Average number of cycles messages are stalled in this MB
system.ruby.l1_cntrl2.mandatoryQueue.avg_buf_msgs     0.005176                       # Average number of messages in buffer
system.ruby.l1_cntrl2.mandatoryQueue.avg_stall_time   544.589360                       # Average number of cycles messages are stalled in this MB
system.ruby.l1_cntrl2.reqTo.avg_buf_msgs     0.000079                       # Average number of messages in buffer
system.ruby.l1_cntrl2.reqTo.avg_stall_time   500.000051                       # Average number of cycles messages are stalled in this MB
system.ruby.l1_cntrl2.respFrom.avg_buf_msgs     0.000043                       # Average number of messages in buffer
system.ruby.l1_cntrl2.respFrom.avg_stall_time 15512.481141                       # Average number of cycles messages are stalled in this MB
system.ruby.l1_cntrl2.respTo.avg_buf_msgs     0.000011                       # Average number of messages in buffer
system.ruby.l1_cntrl2.respTo.avg_stall_time   999.986434                       # Average number of cycles messages are stalled in this MB
system.ruby.l1_cntrl3.cache.demand_accesses            0                       # Number of cache demand accesses
system.ruby.l1_cntrl3.cache.demand_hits             0                       # Number of cache demand hits
system.ruby.l1_cntrl3.cache.demand_misses            0                       # Number of cache demand misses
system.ruby.l1_cntrl3.fully_busy_cycles             1                       # cycles for which number of transistions == max transitions
system.ruby.l1_cntrl3.fwdFrom.avg_buf_msgs     0.000038                       # Average number of messages in buffer
system.ruby.l1_cntrl3.fwdFrom.avg_stall_time  7403.676458                       # Average number of cycles messages are stalled in this MB
system.ruby.l1_cntrl3.mandatoryQueue.avg_buf_msgs     0.004774                       # Average number of messages in buffer
system.ruby.l1_cntrl3.mandatoryQueue.avg_stall_time   550.221885                       # Average number of cycles messages are stalled in this MB
system.ruby.l1_cntrl3.reqTo.avg_buf_msgs     0.000073                       # Average number of messages in buffer
system.ruby.l1_cntrl3.reqTo.avg_stall_time   500.000264                       # Average number of cycles messages are stalled in this MB
system.ruby.l1_cntrl3.respFrom.avg_buf_msgs     0.000040                       # Average number of messages in buffer
system.ruby.l1_cntrl3.respFrom.avg_stall_time 16501.568796                       # Average number of cycles messages are stalled in this MB
system.ruby.l1_cntrl3.respTo.avg_buf_msgs     0.000011                       # Average number of messages in buffer
system.ruby.l1_cntrl3.respTo.avg_stall_time   999.891178                       # Average number of cycles messages are stalled in this MB
system.ruby.latency_hist_seqr::bucket_size            1                      
system.ruby.latency_hist_seqr::max_bucket            9                      
system.ruby.latency_hist_seqr::samples      141451559                      
system.ruby.latency_hist_seqr            |   141451559    100.00%    100.00% |           0      0.00%    100.00% |           0      0.00%    100.00% |           0      0.00%    100.00% |           0      0.00%    100.00% |           0      0.00%    100.00% |           0      0.00%    100.00% |           0      0.00%    100.00% |           0      0.00%    100.00% |           0      0.00%    100.00%
system.ruby.latency_hist_seqr::total        141451559                      
system.ruby.miss_latency_hist_seqr::bucket_size            1                      
system.ruby.miss_latency_hist_seqr::max_bucket            9                      
system.ruby.miss_latency_hist_seqr::samples      1474810                      
system.ruby.miss_latency_hist_seqr       |     1474810    100.00%    100.00% |           0      0.00%    100.00% |           0      0.00%    100.00% |           0      0.00%    100.00% |           0      0.00%    100.00% |           0      0.00%    100.00% |           0      0.00%    100.00% |           0      0.00%    100.00% |           0      0.00%    100.00% |           0      0.00%    100.00%
system.ruby.miss_latency_hist_seqr::total      1474810                      
system.ruby.network.average_flit_latency    16.297390                      
system.ruby.network.average_flit_network_latency    11.901459                      
system.ruby.network.average_flit_queueing_latency     4.395932                      
system.ruby.network.average_flit_vnet_latency |   14.826159                       |    5.091627                       |    8.354901                      
system.ruby.network.average_flit_vqueue_latency |    5.655496                       |           6                       |    1.165809                      
system.ruby.network.average_hops             0.996452                      
system.ruby.network.average_packet_latency    14.603884                      
system.ruby.network.average_packet_network_latency    11.111042                      
system.ruby.network.average_packet_queueing_latency     3.492842                      
system.ruby.network.average_packet_vnet_latency |   22.811304                       |    5.091627                       |    6.837619                      
system.ruby.network.average_packet_vqueue_latency |    5.273986                       |           6                       |    1.081414                      
system.ruby.network.avg_link_utilization     0.003830                      
system.ruby.network.avg_vc_load          |    0.001700     44.39%     44.39% |    0.000221      5.78%     50.17% |    0.000197      5.15%     55.32% |    0.000194      5.05%     60.38% |    0.000309      8.07%     68.45% |    0.000036      0.95%     69.40% |    0.000035      0.90%     70.30% |    0.000035      0.90%     71.20% |    0.000823     21.49%     92.69% |    0.000095      2.48%     95.17% |    0.000093      2.42%     97.59% |    0.000092      2.41%    100.00%
system.ruby.network.avg_vc_load::total       0.003830                      
system.ruby.network.ext_in_link_utilization     12971981                      
system.ruby.network.ext_out_link_utilization     12971981                      
system.ruby.network.flit_network_latency |   115917689                       |     7160717                       |    31307091                      
system.ruby.network.flit_queueing_latency |    44217252                       |     8438226                       |     4368464                      
system.ruby.network.flits_injected       |     7818457     60.27%     60.27% |     1406371     10.84%     71.11% |     3747153     28.89%    100.00%
system.ruby.network.flits_injected::total     12971981                      
system.ruby.network.flits_received       |     7818457     60.27%     60.27% |     1406371     10.84%     71.11% |     3747153     28.89%    100.00%
system.ruby.network.flits_received::total     12971981                      
system.ruby.network.int_link_utilization     12925962                      
system.ruby.network.packet_network_latency |    39285650                       |     7160717                       |    18695862                      
system.ruby.network.packet_queueing_latency |     9082864                       |     8438226                       |     2956872                      
system.ruby.network.packets_injected     |     1722201     29.37%     29.37% |     1406371     23.99%     53.36% |     2734265     46.64%    100.00%
system.ruby.network.packets_injected::total      5862837                      
system.ruby.network.packets_received     |     1722201     29.37%     29.37% |     1406371     23.99%     53.36% |     2734265     46.64%    100.00%
system.ruby.network.packets_received::total      5862837                      
system.ruby.network.routers0.buffer_reads      6939284                      
system.ruby.network.routers0.buffer_writes      6939284                      
system.ruby.network.routers0.crossbar_activity      6939284                      
system.ruby.network.routers0.sw_input_arbiter_activity      6948085                      
system.ruby.network.routers0.sw_output_arbiter_activity      6939284                      
system.ruby.network.routers1.buffer_reads      6152355                      
system.ruby.network.routers1.buffer_writes      6152355                      
system.ruby.network.routers1.crossbar_activity      6152355                      
system.ruby.network.routers1.sw_input_arbiter_activity      6155305                      
system.ruby.network.routers1.sw_output_arbiter_activity      6152355                      
system.ruby.network.routers2.buffer_reads      6473202                      
system.ruby.network.routers2.buffer_writes      6473202                      
system.ruby.network.routers2.crossbar_activity      6473202                      
system.ruby.network.routers2.sw_input_arbiter_activity      6479275                      
system.ruby.network.routers2.sw_output_arbiter_activity      6473202                      
system.ruby.network.routers3.buffer_reads      6333102                      
system.ruby.network.routers3.buffer_writes      6333102                      
system.ruby.network.routers3.crossbar_activity      6333102                      
system.ruby.network.routers3.sw_input_arbiter_activity      6336988                      
system.ruby.network.routers3.sw_output_arbiter_activity      6333102                      
system.ruby.outstanding_req_hist_seqr::bucket_size            1                      
system.ruby.outstanding_req_hist_seqr::max_bucket            9                      
system.ruby.outstanding_req_hist_seqr::samples    141451559                      
system.ruby.outstanding_req_hist_seqr::mean     1.000442                      
system.ruby.outstanding_req_hist_seqr::gmean     1.000306                      
system.ruby.outstanding_req_hist_seqr::stdev     0.021013                      
system.ruby.outstanding_req_hist_seqr    |           0      0.00%      0.00% |   141389076     99.96%     99.96% |       62483      0.04%    100.00% |           0      0.00%    100.00% |           0      0.00%    100.00% |           0      0.00%    100.00% |           0      0.00%    100.00% |           0      0.00%    100.00% |           0      0.00%    100.00% |           0      0.00%    100.00%
system.ruby.outstanding_req_hist_seqr::total    141451559                      
system.switch_cpus0.Branches                  4736987                       # Number of branches fetched
system.switch_cpus0.committedInsts           16690881                       # Number of instructions committed
system.switch_cpus0.committedOps             40761246                       # Number of ops (including micro ops) committed
system.switch_cpus0.dtb.rdAccesses            6017141                       # TLB accesses on read requests
system.switch_cpus0.dtb.rdMisses                14635                       # TLB misses on read requests
system.switch_cpus0.dtb.wrAccesses            4014703                       # TLB accesses on write requests
system.switch_cpus0.dtb.wrMisses                 2288                       # TLB misses on write requests
system.switch_cpus0.idle_fraction            0.989664                       # Percentage of idle cycles
system.switch_cpus0.itb.rdAccesses                  0                       # TLB accesses on read requests
system.switch_cpus0.itb.rdMisses                    0                       # TLB misses on read requests
system.switch_cpus0.itb.wrAccesses           22341054                       # TLB accesses on write requests
system.switch_cpus0.itb.wrMisses                 3647                       # TLB misses on write requests
system.switch_cpus0.kern.inst.arm                   0                       # number of arm instructions executed
system.switch_cpus0.kern.inst.quiesce               0                       # number of quiesce instructions executed
system.switch_cpus0.not_idle_fraction        0.010336                       # Percentage of non-idle cycles
system.switch_cpus0.numCycles             10148732437                       # number of cpu cycles simulated
system.switch_cpus0.numWorkItemsCompleted            0                       # number of work items this cpu completed
system.switch_cpus0.numWorkItemsStarted             0                       # number of work items this cpu started
system.switch_cpus0.num_busy_cycles      104893780.013547                       # Number of busy cycles
system.switch_cpus0.num_cc_register_reads     22642372                       # number of times the CC registers were read
system.switch_cpus0.num_cc_register_writes     10663856                       # number of times the CC registers were written
system.switch_cpus0.num_conditional_control_insts      2827807                       # number of instructions that are conditional controls
system.switch_cpus0.num_fp_alu_accesses        102038                       # Number of float alu accesses
system.switch_cpus0.num_fp_insts               102038                       # number of float instructions
system.switch_cpus0.num_fp_register_reads       175051                       # number of times the floating registers were read
system.switch_cpus0.num_fp_register_writes        90608                       # number of times the floating registers were written
system.switch_cpus0.num_func_calls            1575948                       # number of times a function call or return occured
system.switch_cpus0.num_idle_cycles      10043838656.986454                       # Number of idle cycles
system.switch_cpus0.num_int_alu_accesses     39420286                       # Number of integer alu accesses
system.switch_cpus0.num_int_insts            39420286                       # number of integer instructions
system.switch_cpus0.num_int_register_reads     80844228                       # number of times the integer registers were read
system.switch_cpus0.num_int_register_writes     31851965                       # number of times the integer registers were written
system.switch_cpus0.num_load_insts            5996543                       # Number of load instructions
system.switch_cpus0.num_mem_refs             10008982                       # number of memory refs
system.switch_cpus0.num_store_insts           4012439                       # Number of store instructions
system.switch_cpus0.num_vec_alu_accesses            0                       # Number of vector alu accesses
system.switch_cpus0.num_vec_insts                   0                       # number of vector instructions
system.switch_cpus0.num_vec_register_reads            0                       # number of times the vector registers were read
system.switch_cpus0.num_vec_register_writes            0                       # number of times the vector registers were written
system.switch_cpus0.op_class::No_OpClass      1066421      2.62%      2.62% # Class of executed instruction
system.switch_cpus0.op_class::IntAlu         29458658     72.27%     74.89% # Class of executed instruction
system.switch_cpus0.op_class::IntMult           96583      0.24%     75.12% # Class of executed instruction
system.switch_cpus0.op_class::IntDiv            64267      0.16%     75.28% # Class of executed instruction
system.switch_cpus0.op_class::FloatAdd           1810      0.00%     75.28% # Class of executed instruction
system.switch_cpus0.op_class::FloatCmp              0      0.00%     75.28% # Class of executed instruction
system.switch_cpus0.op_class::FloatCvt            400      0.00%     75.29% # Class of executed instruction
system.switch_cpus0.op_class::FloatMult             0      0.00%     75.29% # Class of executed instruction
system.switch_cpus0.op_class::FloatMultAcc            0      0.00%     75.29% # Class of executed instruction
system.switch_cpus0.op_class::FloatDiv              0      0.00%     75.29% # Class of executed instruction
system.switch_cpus0.op_class::FloatMisc             0      0.00%     75.29% # Class of executed instruction
system.switch_cpus0.op_class::FloatSqrt             0      0.00%     75.29% # Class of executed instruction
system.switch_cpus0.op_class::SimdAdd           23577      0.06%     75.34% # Class of executed instruction
system.switch_cpus0.op_class::SimdAddAcc            0      0.00%     75.34% # Class of executed instruction
system.switch_cpus0.op_class::SimdAlu           10118      0.02%     75.37% # Class of executed instruction
system.switch_cpus0.op_class::SimdCmp            1210      0.00%     75.37% # Class of executed instruction
system.switch_cpus0.op_class::SimdCvt            8774      0.02%     75.39% # Class of executed instruction
system.switch_cpus0.op_class::SimdMisc          18918      0.05%     75.44% # Class of executed instruction
system.switch_cpus0.op_class::SimdMult            974      0.00%     75.44% # Class of executed instruction
system.switch_cpus0.op_class::SimdMultAcc            0      0.00%     75.44% # Class of executed instruction
system.switch_cpus0.op_class::SimdShift          1571      0.00%     75.45% # Class of executed instruction
system.switch_cpus0.op_class::SimdShiftAcc            0      0.00%     75.45% # Class of executed instruction
system.switch_cpus0.op_class::SimdDiv               0      0.00%     75.45% # Class of executed instruction
system.switch_cpus0.op_class::SimdSqrt              0      0.00%     75.45% # Class of executed instruction
system.switch_cpus0.op_class::SimdFloatAdd            0      0.00%     75.45% # Class of executed instruction
system.switch_cpus0.op_class::SimdFloatAlu            0      0.00%     75.45% # Class of executed instruction
system.switch_cpus0.op_class::SimdFloatCmp            0      0.00%     75.45% # Class of executed instruction
system.switch_cpus0.op_class::SimdFloatCvt            0      0.00%     75.45% # Class of executed instruction
system.switch_cpus0.op_class::SimdFloatDiv            0      0.00%     75.45% # Class of executed instruction
system.switch_cpus0.op_class::SimdFloatMisc            0      0.00%     75.45% # Class of executed instruction
system.switch_cpus0.op_class::SimdFloatMult            0      0.00%     75.45% # Class of executed instruction
system.switch_cpus0.op_class::SimdFloatMultAcc            0      0.00%     75.45% # Class of executed instruction
system.switch_cpus0.op_class::SimdFloatSqrt            0      0.00%     75.45% # Class of executed instruction
system.switch_cpus0.op_class::SimdReduceAdd            0      0.00%     75.45% # Class of executed instruction
system.switch_cpus0.op_class::SimdReduceAlu            0      0.00%     75.45% # Class of executed instruction
system.switch_cpus0.op_class::SimdReduceCmp            0      0.00%     75.45% # Class of executed instruction
system.switch_cpus0.op_class::SimdFloatReduceAdd            0      0.00%     75.45% # Class of executed instruction
system.switch_cpus0.op_class::SimdFloatReduceCmp            0      0.00%     75.45% # Class of executed instruction
system.switch_cpus0.op_class::SimdAes               0      0.00%     75.45% # Class of executed instruction
system.switch_cpus0.op_class::SimdAesMix            0      0.00%     75.45% # Class of executed instruction
system.switch_cpus0.op_class::SimdSha1Hash            0      0.00%     75.45% # Class of executed instruction
system.switch_cpus0.op_class::SimdSha1Hash2            0      0.00%     75.45% # Class of executed instruction
system.switch_cpus0.op_class::SimdSha256Hash            0      0.00%     75.45% # Class of executed instruction
system.switch_cpus0.op_class::SimdSha256Hash2            0      0.00%     75.45% # Class of executed instruction
system.switch_cpus0.op_class::SimdShaSigma2            0      0.00%     75.45% # Class of executed instruction
system.switch_cpus0.op_class::SimdShaSigma3            0      0.00%     75.45% # Class of executed instruction
system.switch_cpus0.op_class::SimdPredAlu            0      0.00%     75.45% # Class of executed instruction
system.switch_cpus0.op_class::MemRead         5975065     14.66%     90.10% # Class of executed instruction
system.switch_cpus0.op_class::MemWrite        4007549      9.83%     99.94% # Class of executed instruction
system.switch_cpus0.op_class::FloatMemRead        21478      0.05%     99.99% # Class of executed instruction
system.switch_cpus0.op_class::FloatMemWrite         4890      0.01%    100.00% # Class of executed instruction
system.switch_cpus0.op_class::IprAccess             0      0.00%    100.00% # Class of executed instruction
system.switch_cpus0.op_class::InstPrefetch            0      0.00%    100.00% # Class of executed instruction
system.switch_cpus0.op_class::total          40762263                       # Class of executed instruction
system.switch_cpus1.Branches                  3695639                       # Number of branches fetched
system.switch_cpus1.committedInsts           14348856                       # Number of instructions committed
system.switch_cpus1.committedOps             31911143                       # Number of ops (including micro ops) committed
system.switch_cpus1.dtb.rdAccesses            4612855                       # TLB accesses on read requests
[...]
system.mem_ctrls1.llc.tags.occ_percent::total     0.129232                       # Average percentage of cache occupancy
system.mem_ctrls1.llc.tags.occ_task_id_blocks::1024        35415                       # Occupied blocks per task id
system.mem_ctrls1.llc.tags.age_task_id_blocks_1024::0            5                       # Occupied blocks per task id
system.mem_ctrls1.llc.tags.age_task_id_blocks_1024::1           29                       # Occupied blocks per task id
system.mem_ctrls1.llc.tags.age_task_id_blocks_1024::2          252                       # Occupied blocks per task id
system.mem_ctrls1.llc.tags.age_task_id_blocks_1024::3          354                       # Occupied blocks per task id
system.mem_ctrls1.llc.tags.age_task_id_blocks_1024::4        34775                       # Occupied blocks per task id
system.mem_ctrls1.llc.tags.occ_task_id_percent::1024     0.135098                       # Percentage of cache occupancy per task id
system.mem_ctrls1.llc.tags.tag_accesses       7121367                       # Number of tag accesses
system.mem_ctrls1.llc.tags.data_accesses       442872                       # Number of data accesses
system.mem_ctrls1.llc.tags.power_state.pwrStateResidencyTicks::UNDEFINED 110282586340001                       # Cumulative time (in ticks) in various power states
system.mem_ctrls1.rank1.actEnergy            35143080                       # Energy for activate commands per rank (pJ)
system.mem_ctrls1.rank1.preEnergy            18667605                       # Energy for precharge commands per rank (pJ)
system.mem_ctrls1.rank1.readEnergy          120273300                       # Energy for read commands per rank (pJ)
system.mem_ctrls1.rank1.writeEnergy                 0                       # Energy for write commands per rank (pJ)
system.mem_ctrls1.rank1.refreshEnergy    400567649040.000061                       # Energy for refresh commands per rank (pJ)
system.mem_ctrls1.rank1.actBackEnergy     80886174900                       # Energy for active background per rank (pJ)
system.mem_ctrls1.rank1.preBackEnergy    1880451705120                       # Energy for precharge background per rank (pJ)
system.mem_ctrls1.rank1.actPowerDownEnergy            0                       # Energy for active power-down per rank (pJ)
system.mem_ctrls1.rank1.prePowerDownEnergy            0                       # Energy for precharge power-down per rank (pJ)
system.mem_ctrls1.rank1.selfRefreshEnergy            0                       # Energy for self refresh per rank (pJ)
system.mem_ctrls1.rank1.totalEnergy      2362079613045                       # Total energy per rank (pJ)
system.mem_ctrls1.rank1.averagePower       465.490178                       # Core power per rank (mW)
system.mem_ctrls1.rank1.totalIdleTime               0                       # Total Idle time Per DRAM Rank
system.mem_ctrls1.rank1.memoryStateTime::IDLE 4888002392000                       # Time in different power states
system.mem_ctrls1.rank1.memoryStateTime::REF 169444860000                       # Time in different power states
system.mem_ctrls1.rank1.memoryStateTime::SREF            0                       # Time in different power states
system.mem_ctrls1.rank1.memoryStateTime::PRE_PDN            0                       # Time in different power states
system.mem_ctrls1.rank1.memoryStateTime::ACT  16944702001                       # Time in different power states
system.mem_ctrls1.rank1.memoryStateTime::ACT_PDN            0                       # Time in different power states
system.mem_ctrls1.rank0.actEnergy            42368760                       # Energy for activate commands per rank (pJ)
system.mem_ctrls1.rank0.preEnergy            22519530                       # Energy for precharge commands per rank (pJ)
system.mem_ctrls1.rank0.readEnergy          132589800                       # Energy for read commands per rank (pJ)
system.mem_ctrls1.rank0.writeEnergy                 0                       # Energy for write commands per rank (pJ)
system.mem_ctrls1.rank0.refreshEnergy    400567649040.000061                       # Energy for refresh commands per rank (pJ)
system.mem_ctrls1.rank0.actBackEnergy     81335740170                       # Energy for active background per rank (pJ)
system.mem_ctrls1.rank0.preBackEnergy    1880073208320                       # Energy for precharge background per rank (pJ)
system.mem_ctrls1.rank0.actPowerDownEnergy            0                       # Energy for active power-down per rank (pJ)
system.mem_ctrls1.rank0.prePowerDownEnergy            0                       # Energy for precharge power-down per rank (pJ)
system.mem_ctrls1.rank0.selfRefreshEnergy            0                       # Energy for self refresh per rank (pJ)
system.mem_ctrls1.rank0.totalEnergy      2362174075620                       # Total energy per rank (pJ)
system.mem_ctrls1.rank0.averagePower       465.508793                       # Core power per rank (mW)
system.mem_ctrls1.rank0.totalIdleTime               0                       # Total Idle time Per DRAM Rank
system.mem_ctrls1.rank0.memoryStateTime::IDLE 4887011342001                       # Time in different power states
system.mem_ctrls1.rank0.memoryStateTime::REF 169444860000                       # Time in different power states
system.mem_ctrls1.rank0.memoryStateTime::SREF            0                       # Time in different power states
system.mem_ctrls1.rank0.memoryStateTime::PRE_PDN            0                       # Time in different power states
system.mem_ctrls1.rank0.memoryStateTime::ACT  17935752000                       # Time in different power states
system.mem_ctrls1.rank0.memoryStateTime::ACT_PDN            0                       # Time in different power states
system.mem_ctrls1.power_state.pwrStateResidencyTicks::UNDEFINED 110282586340001                       # Cumulative time (in ticks) in various power states
system.cpu_voltage_domain.voltage                   1                       # Voltage in Volts
system.iobus.trans_dist::ReadReq                 2270                       # Transaction distribution
system.iobus.trans_dist::ReadResp                2270                       # Transaction distribution
system.iobus.trans_dist::WriteReq               22240                       # Transaction distribution
system.iobus.trans_dist::WriteResp              22240                       # Transaction distribution
system.iobus.pkt_count_system.pc.south_bridge.io_apic.int_master::system.ruby.l1_cntrl1.sequencer.pio-slave-port         1460                       # Packet count per connected master and slave (bytes)
system.iobus.pkt_count_system.pc.south_bridge.io_apic.int_master::total         1460                       # Packet count per connected master and slave (bytes)
system.iobus.pkt_count_system.ruby.l1_cntrl0.sequencer.mem-master-port::system.pc.south_bridge.ide.pio           68                       # Packet count per connected master and slave (bytes)
system.iobus.pkt_count_system.ruby.l1_cntrl0.sequencer.mem-master-port::system.pc.com_1.pio           10                       # Packet count per connected master and slave (bytes)
system.iobus.pkt_count_system.ruby.l1_cntrl0.sequencer.mem-master-port::system.ruby.l1_cntrl0.sequencer.pio-slave-port        10332                       # Packet count per connected master and slave (bytes)
system.iobus.pkt_count_system.ruby.l1_cntrl0.sequencer.mem-master-port::system.ruby.l1_cntrl1.sequencer.pio-slave-port            6                       # Packet count per connected master and slave (bytes)
system.iobus.pkt_count_system.ruby.l1_cntrl0.sequencer.mem-master-port::system.ruby.l1_cntrl2.sequencer.pio-slave-port           12                       # Packet count per connected master and slave (bytes)
system.iobus.pkt_count_system.ruby.l1_cntrl0.sequencer.mem-master-port::system.ruby.l1_cntrl3.sequencer.pio-slave-port           12                       # Packet count per connected master and slave (bytes)
system.iobus.pkt_count_system.ruby.l1_cntrl0.sequencer.mem-master-port::total        10440                       # Packet count per connected master and slave (bytes)
system.iobus.pkt_count_system.ruby.l1_cntrl1.sequencer.mem-master-port::system.pc.south_bridge.ide.pio           72                       # Packet count per connected master and slave (bytes)
system.iobus.pkt_count_system.ruby.l1_cntrl1.sequencer.mem-master-port::system.pc.com_1.pio         5810                       # Packet count per connected master and slave (bytes)
system.iobus.pkt_count_system.ruby.l1_cntrl1.sequencer.mem-master-port::system.ruby.l1_cntrl0.sequencer.pio-slave-port           34                       # Packet count per connected master and slave (bytes)
system.iobus.pkt_count_system.ruby.l1_cntrl1.sequencer.mem-master-port::system.ruby.l1_cntrl1.sequencer.pio-slave-port        10412                       # Packet count per connected master and slave (bytes)
system.iobus.pkt_count_system.ruby.l1_cntrl1.sequencer.mem-master-port::system.ruby.l1_cntrl2.sequencer.pio-slave-port            2                       # Packet count per connected master and slave (bytes)
system.iobus.pkt_count_system.ruby.l1_cntrl1.sequencer.mem-master-port::total        16330                       # Packet count per connected master and slave (bytes)
system.iobus.pkt_count_system.ruby.l1_cntrl2.sequencer.mem-master-port::system.pc.south_bridge.ide.pio          102                       # Packet count per connected master and slave (bytes)
system.iobus.pkt_count_system.ruby.l1_cntrl2.sequencer.mem-master-port::system.ruby.l1_cntrl0.sequencer.pio-slave-port           32                       # Packet count per connected master and slave (bytes)
system.iobus.pkt_count_system.ruby.l1_cntrl2.sequencer.mem-master-port::system.ruby.l1_cntrl1.sequencer.pio-slave-port            8                       # Packet count per connected master and slave (bytes)
system.iobus.pkt_count_system.ruby.l1_cntrl2.sequencer.mem-master-port::system.ruby.l1_cntrl2.sequencer.pio-slave-port        10308                       # Packet count per connected master and slave (bytes)
system.iobus.pkt_count_system.ruby.l1_cntrl2.sequencer.mem-master-port::system.ruby.l1_cntrl3.sequencer.pio-slave-port            2                       # Packet count per connected master and slave (bytes)
system.iobus.pkt_count_system.ruby.l1_cntrl2.sequencer.mem-master-port::total        10452                       # Packet count per connected master and slave (bytes)
system.iobus.pkt_count_system.ruby.l1_cntrl3.sequencer.mem-master-port::system.pc.south_bridge.ide.pio           34                       # Packet count per connected master and slave (bytes)
system.iobus.pkt_count_system.ruby.l1_cntrl3.sequencer.mem-master-port::system.ruby.l1_cntrl0.sequencer.pio-slave-port           20                       # Packet count per connected master and slave (bytes)
system.iobus.pkt_count_system.ruby.l1_cntrl3.sequencer.mem-master-port::system.ruby.l1_cntrl1.sequencer.pio-slave-port            2                       # Packet count per connected master and slave (bytes)
system.iobus.pkt_count_system.ruby.l1_cntrl3.sequencer.mem-master-port::system.ruby.l1_cntrl2.sequencer.pio-slave-port           10                       # Packet count per connected master and slave (bytes)
system.iobus.pkt_count_system.ruby.l1_cntrl3.sequencer.mem-master-port::system.ruby.l1_cntrl3.sequencer.pio-slave-port        10272                       # Packet count per connected master and slave (bytes)
system.iobus.pkt_count_system.ruby.l1_cntrl3.sequencer.mem-master-port::total        10338                       # Packet count per connected master and slave (bytes)
system.iobus.pkt_count::total                   49020                       # Packet count per connected master and slave (bytes)
system.iobus.pkt_size_system.pc.south_bridge.io_apic.int_master::system.ruby.l1_cntrl1.sequencer.pio-slave-port         2920                       # Cumulative packet size per connected master and slave (bytes)
system.iobus.pkt_size_system.pc.south_bridge.io_apic.int_master::total         2920                       # Cumulative packet size per connected master and slave (bytes)
system.iobus.pkt_size_system.ruby.l1_cntrl0.sequencer.mem-master-port::system.pc.south_bridge.ide.pio           40                       # Cumulative packet size per connected master and slave (bytes)
system.iobus.pkt_size_system.ruby.l1_cntrl0.sequencer.mem-master-port::system.pc.com_1.pio            5                       # Cumulative packet size per connected master and slave (bytes)
system.iobus.pkt_size_system.ruby.l1_cntrl0.sequencer.mem-master-port::system.ruby.l1_cntrl0.sequencer.pio-slave-port        20664                       # Cumulative packet size per connected master and slave (bytes)
system.iobus.pkt_size_system.ruby.l1_cntrl0.sequencer.mem-master-port::system.ruby.l1_cntrl1.sequencer.pio-slave-port           12                       # Cumulative packet size per connected master and slave (bytes)
system.iobus.pkt_size_system.ruby.l1_cntrl0.sequencer.mem-master-port::system.ruby.l1_cntrl2.sequencer.pio-slave-port           24                       # Cumulative packet size per connected master and slave (bytes)
system.iobus.pkt_size_system.ruby.l1_cntrl0.sequencer.mem-master-port::system.ruby.l1_cntrl3.sequencer.pio-slave-port           24                       # Cumulative packet size per connected master and slave (bytes)
system.iobus.pkt_size_system.ruby.l1_cntrl0.sequencer.mem-master-port::total        20769                       # Cumulative packet size per connected master and slave (bytes)
system.iobus.pkt_size_system.ruby.l1_cntrl1.sequencer.mem-master-port::system.pc.south_bridge.ide.pio           36                       # Cumulative packet size per connected master and slave (bytes)
system.iobus.pkt_size_system.ruby.l1_cntrl1.sequencer.mem-master-port::system.pc.com_1.pio         2905                       # Cumulative packet size per connected master and slave (bytes)
system.iobus.pkt_size_system.ruby.l1_cntrl1.sequencer.mem-master-port::system.ruby.l1_cntrl0.sequencer.pio-slave-port           68                       # Cumulative packet size per connected master and slave (bytes)
system.iobus.pkt_size_system.ruby.l1_cntrl1.sequencer.mem-master-port::system.ruby.l1_cntrl1.sequencer.pio-slave-port        20824                       # Cumulative packet size per connected master and slave (bytes)
system.iobus.pkt_size_system.ruby.l1_cntrl1.sequencer.mem-master-port::system.ruby.l1_cntrl2.sequencer.pio-slave-port            4                       # Cumulative packet size per connected master and slave (bytes)
system.iobus.pkt_size_system.ruby.l1_cntrl1.sequencer.mem-master-port::total        23837                       # Cumulative packet size per connected master and slave (bytes)
system.iobus.pkt_size_system.ruby.l1_cntrl2.sequencer.mem-master-port::system.pc.south_bridge.ide.pio           60                       # Cumulative packet size per connected master and slave (bytes)
system.iobus.pkt_size_system.ruby.l1_cntrl2.sequencer.mem-master-port::system.ruby.l1_cntrl0.sequencer.pio-slave-port           64                       # Cumulative packet size per connected master and slave (bytes)
system.iobus.pkt_size_system.ruby.l1_cntrl2.sequencer.mem-master-port::system.ruby.l1_cntrl1.sequencer.pio-slave-port           16                       # Cumulative packet size per connected master and slave (bytes)
system.iobus.pkt_size_system.ruby.l1_cntrl2.sequencer.mem-master-port::system.ruby.l1_cntrl2.sequencer.pio-slave-port        20616                       # Cumulative packet size per connected master and slave (bytes)
system.iobus.pkt_size_system.ruby.l1_cntrl2.sequencer.mem-master-port::system.ruby.l1_cntrl3.sequencer.pio-slave-port            4                       # Cumulative packet size per connected master and slave (bytes)
system.iobus.pkt_size_system.ruby.l1_cntrl2.sequencer.mem-master-port::total        20760                       # Cumulative packet size per connected master and slave (bytes)
system.iobus.pkt_size_system.ruby.l1_cntrl3.sequencer.mem-master-port::system.pc.south_bridge.ide.pio           20                       # Cumulative packet size per connected master and slave (bytes)
system.iobus.pkt_size_system.ruby.l1_cntrl3.sequencer.mem-master-port::system.ruby.l1_cntrl0.sequencer.pio-slave-port           40                       # Cumulative packet size per connected master and slave (bytes)
system.iobus.pkt_size_system.ruby.l1_cntrl3.sequencer.mem-master-port::system.ruby.l1_cntrl1.sequencer.pio-slave-port            4                       # Cumulative packet size per connected master and slave (bytes)
system.iobus.pkt_size_system.ruby.l1_cntrl3.sequencer.mem-master-port::system.ruby.l1_cntrl2.sequencer.pio-slave-port           20                       # Cumulative packet size per connected master and slave (bytes)
system.iobus.pkt_size_system.ruby.l1_cntrl3.sequencer.mem-master-port::system.ruby.l1_cntrl3.sequencer.pio-slave-port        20544                       # Cumulative packet size per connected master and slave (bytes)
system.iobus.pkt_size_system.ruby.l1_cntrl3.sequencer.mem-master-port::total        20628                       # Cumulative packet size per connected master and slave (bytes)
system.iobus.pkt_size::total                    88914                       # Cumulative packet size per connected master and slave (bytes)
system.iobus.reqLayer2.occupancy               228500                       # Layer occupancy (ticks)
system.iobus.reqLayer2.utilization                0.0                       # Layer utilization (%)
system.iobus.power_state.pwrStateResidencyTicks::UNDEFINED 110282586340001                       # Cumulative time (in ticks) in various power states
system.iobus.reqLayer19.occupancy            10349936                       # Layer occupancy (ticks)
system.iobus.reqLayer19.utilization               0.0                       # Layer utilization (%)
system.iobus.reqLayer17.occupancy            10448959                       # Layer occupancy (ticks)
system.iobus.reqLayer17.utilization               0.0                       # Layer utilization (%)
system.iobus.reqLayer12.occupancy             3678500                       # Layer occupancy (ticks)
system.iobus.reqLayer12.utilization               0.0                       # Layer utilization (%)
system.iobus.reqLayer18.occupancy            11901456                       # Layer occupancy (ticks)
system.iobus.reqLayer18.utilization               0.0                       # Layer utilization (%)
system.iobus.respLayer9.occupancy             7757000                       # Layer occupancy (ticks)
system.iobus.respLayer9.utilization               0.0                       # Layer utilization (%)
system.iobus.respLayer5.occupancy            12964000                       # Layer occupancy (ticks)
system.iobus.respLayer5.utilization               0.0                       # Layer utilization (%)
system.iobus.respLayer7.occupancy             7835000                       # Layer occupancy (ticks)
system.iobus.respLayer7.utilization               0.0                       # Layer utilization (%)
system.iobus.respLayer0.occupancy             1094494                       # Layer occupancy (ticks)
system.iobus.respLayer0.utilization               0.0                       # Layer utilization (%)
system.iobus.respLayer3.occupancy             7825000                       # Layer occupancy (ticks)
system.iobus.respLayer3.utilization               0.0                       # Layer utilization (%)
system.iobus.reqLayer20.occupancy            10303443                       # Layer occupancy (ticks)
system.iobus.reqLayer20.utilization               0.0                       # Layer utilization (%)

---------- End Simulation Statistics   ----------
