
---------- Begin Simulation Statistics ----------
final_tick                               97369514391501                       # Number of ticks from beginning of simulation (restored from checkpoints and never reset)
host_inst_rate                                 796327                       # Simulator instruction rate (inst/s)
host_mem_usage                                1375916                       # Number of bytes of host memory used
host_op_rate                                   845885                       # Simulator op (including micro ops) rate (op/s)
host_seconds                                  6524.68                       # Real time elapsed on the host
host_tick_rate                              106942139                       # Simulator tick rate (ticks/s)
sim_freq                                 1000000000000                       # Frequency of simulated ticks
sim_insts                                  5195781699                       # Number of instructions simulated
sim_ops                                    5519132009                       # Number of ops (including micro ops) simulated
sim_seconds                                  0.697764                       # Number of seconds simulated
sim_ticks                                697763551501                       # Number of ticks simulated
system.cpu0.committedInsts                          0                       # Number of instructions committed
system.cpu0.dtb.rdAccesses                          0                       # TLB accesses on read requests
system.cpu0.dtb.rdMisses                            0                       # TLB misses on read requests
system.cpu0.dtb.wrAccesses                          0                       # TLB accesses on write requests
system.cpu0.dtb.wrMisses                            0                       # TLB misses on write requests
system.cpu0.itb.rdAccesses                          0                       # TLB accesses on read requests
system.cpu0.itb.rdMisses                            0                       # TLB misses on read requests
system.cpu0.itb.wrAccesses                          0                       # TLB accesses on write requests
system.cpu0.itb.wrMisses                            0                       # TLB misses on write requests
system.cpu0.kern.inst.arm                           0                       # number of arm instructions executed
system.cpu0.kern.inst.quiesce                       0                       # number of quiesce instructions executed
system.cpu0.numCoalescedMMIO                        0                       # number of coalesced memory mapped IO requests
system.cpu0.numCycles                               0                       # number of cpu cycles simulated
system.cpu0.numExitSignal                           0                       # exits due to signal delivery
system.cpu0.numHalt                                 0                       # number of VM exits due to wait for interrupt instructions
system.cpu0.numHypercalls                           0                       # number of hypercalls
system.cpu0.numIO                                   0                       # number of VM exits due to legacy IO
system.cpu0.numInterrupts                           0                       # number of interrupts delivered
system.cpu0.numMMIO                                 0                       # number of VM exits due to memory mapped IO
system.cpu0.numVMExits                              0                       # total number of KVM exits
system.cpu0.numVMHalfEntries                        0                       # number of KVM entries to finalize pending operations
system.cpu0.numWorkItemsCompleted                   0                       # number of work items this cpu completed
system.cpu0.numWorkItemsStarted                     0                       # number of work items this cpu started
system.cpu1.committedInsts                          0                       # Number of instructions committed
system.cpu1.dtb.rdAccesses                          0                       # TLB accesses on read requests
system.cpu1.dtb.rdMisses                            0                       # TLB misses on read requests
system.cpu1.dtb.wrAccesses                          0                       # TLB accesses on write requests
system.cpu1.dtb.wrMisses                            0                       # TLB misses on write requests
system.cpu1.itb.rdAccesses                          0                       # TLB accesses on read requests
system.cpu1.itb.rdMisses                            0                       # TLB misses on read requests
system.cpu1.itb.wrAccesses                          0                       # TLB accesses on write requests
system.cpu1.itb.wrMisses                            0                       # TLB misses on write requests
system.cpu1.kern.inst.arm                           0                       # number of arm instructions executed
system.cpu1.kern.inst.quiesce                       0                       # number of quiesce instructions executed
system.cpu1.numCoalescedMMIO                        0                       # number of coalesced memory mapped IO requests
system.cpu1.numCycles                               0                       # number of cpu cycles simulated
system.cpu1.numExitSignal                           0                       # exits due to signal delivery
system.cpu1.numHalt                                 0                       # number of VM exits due to wait for interrupt instructions
system.cpu1.numHypercalls                           0                       # number of hypercalls
system.cpu1.numIO                                   0                       # number of VM exits due to legacy IO
system.cpu1.numInterrupts                           0                       # number of interrupts delivered
system.cpu1.numMMIO                                 0                       # number of VM exits due to memory mapped IO
system.cpu1.numVMExits                              0                       # total number of KVM exits
system.cpu1.numVMHalfEntries                        0                       # number of KVM entries to finalize pending operations
system.cpu1.numWorkItemsCompleted                   0                       # number of work items this cpu completed
system.cpu1.numWorkItemsStarted                     0                       # number of work items this cpu started
system.cpu2.committedInsts                          0                       # Number of instructions committed
system.cpu2.dtb.rdAccesses                          0                       # TLB accesses on read requests
system.cpu2.dtb.rdMisses                            0                       # TLB misses on read requests
system.cpu2.dtb.wrAccesses                          0                       # TLB accesses on write requests
system.cpu2.dtb.wrMisses                            0                       # TLB misses on write requests
system.cpu2.itb.rdAccesses                          0                       # TLB accesses on read requests
system.cpu2.itb.rdMisses                            0                       # TLB misses on read requests
system.cpu2.itb.wrAccesses                          0                       # TLB accesses on write requests
system.cpu2.itb.wrMisses                            0                       # TLB misses on write requests
system.cpu2.kern.inst.arm                           0                       # number of arm instructions executed
system.cpu2.kern.inst.quiesce                       0                       # number of quiesce instructions executed
system.cpu2.numCoalescedMMIO                        0                       # number of coalesced memory mapped IO requests
system.cpu2.numCycles                               0                       # number of cpu cycles simulated
system.cpu2.numExitSignal                           0                       # exits due to signal delivery
system.cpu2.numHalt                                 0                       # number of VM exits due to wait for interrupt instructions
system.cpu2.numHypercalls                           0                       # number of hypercalls
system.cpu2.numIO                                   0                       # number of VM exits due to legacy IO
system.cpu2.numInterrupts                           0                       # number of interrupts delivered
system.cpu2.numMMIO                                 0                       # number of VM exits due to memory mapped IO
system.cpu2.numVMExits                              0                       # total number of KVM exits
system.cpu2.numVMHalfEntries                        0                       # number of KVM entries to finalize pending operations
system.cpu2.numWorkItemsCompleted                   0                       # number of work items this cpu completed
system.cpu2.numWorkItemsStarted                     0                       # number of work items this cpu started
system.cpu3.committedInsts                          0                       # Number of instructions committed
system.cpu3.dtb.rdAccesses                          0                       # TLB accesses on read requests
system.cpu3.dtb.rdMisses                            0                       # TLB misses on read requests
system.cpu3.dtb.wrAccesses                          0                       # TLB accesses on write requests
system.cpu3.dtb.wrMisses                            0                       # TLB misses on write requests
system.cpu3.itb.rdAccesses                          0                       # TLB accesses on read requests
system.cpu3.itb.rdMisses                            0                       # TLB misses on read requests
system.cpu3.itb.wrAccesses                          0                       # TLB accesses on write requests
system.cpu3.itb.wrMisses                            0                       # TLB misses on write requests
system.cpu3.kern.inst.arm                           0                       # number of arm instructions executed
system.cpu3.kern.inst.quiesce                       0                       # number of quiesce instructions executed
system.cpu3.numCoalescedMMIO                        0                       # number of coalesced memory mapped IO requests
system.cpu3.numCycles                               0                       # number of cpu cycles simulated
system.cpu3.numExitSignal                           0                       # exits due to signal delivery
system.cpu3.numHalt                                 0                       # number of VM exits due to wait for interrupt instructions
system.cpu3.numHypercalls                           0                       # number of hypercalls
system.cpu3.numIO                                   0                       # number of VM exits due to legacy IO
system.cpu3.numInterrupts                           0                       # number of interrupts delivered
system.cpu3.numMMIO                                 0                       # number of VM exits due to memory mapped IO
system.cpu3.numVMExits                              0                       # total number of KVM exits
system.cpu3.numVMHalfEntries                        0                       # number of KVM entries to finalize pending operations
system.cpu3.numWorkItemsCompleted                   0                       # number of work items this cpu completed
system.cpu3.numWorkItemsStarted                     0                       # number of work items this cpu started
system.pc.south_bridge.ide.disks.dma_read_bytes            0                       # Number of bytes transfered via DMA reads (not PRD).
system.pc.south_bridge.ide.disks.dma_read_full_pages            0                       # Number of full page size DMA reads (not PRD).
system.pc.south_bridge.ide.disks.dma_read_txs            0                       # Number of DMA read transactions (not PRD).
system.pc.south_bridge.ide.disks.dma_write_bytes            0                       # Number of bytes transfered via DMA writes.
system.pc.south_bridge.ide.disks.dma_write_full_pages            0                       # Number of full page size DMA writes.
system.pc.south_bridge.ide.disks.dma_write_txs            0                       # Number of DMA write transactions.
system.ruby.Directory_Controller.I.allocTBE |      233615     26.05%     26.05% |      234159     26.11%     52.16% |      211500     23.58%     75.75% |      217504     24.25%    100.00%
system.ruby.Directory_Controller.I.allocTBE::total       896778                      
system.ruby.Directory_Controller.I.deallocTBE |      233044     26.05%     26.05% |      233573     26.11%     52.17% |      210947     23.58%     75.75% |      216918     24.25%    100.00%
system.ruby.Directory_Controller.I.deallocTBE::total       894482                      
system.ruby.Directory_Controller.I_GetML1C1_0.Stallreqto_in |         319     30.76%     30.76% |         301     29.03%     59.79% |         207     19.96%     79.75% |         210     20.25%    100.00%
system.ruby.Directory_Controller.I_GetML1C1_0.Stallreqto_in::total         1037                      
system.ruby.Directory_Controller.M.allocTBE |     7424811     16.70%     16.70% |    17367271     39.07%     55.77% |    11930445     26.84%     82.60% |     7734308     17.40%    100.00%
system.ruby.Directory_Controller.M.allocTBE::total     44456835                      
system.ruby.Directory_Controller.M.deallocTBE |     7425382     16.70%     16.70% |    17367857     39.06%     55.77% |    11930998     26.84%     82.60% |     7734894     17.40%    100.00%
system.ruby.Directory_Controller.M.deallocTBE::total     44459131                      
system.ruby.Directory_Controller.M_PutML1C1_0.Stallreqto_in |          45     28.30%     28.30% |          37     23.27%     51.57% |          53     33.33%     84.91% |          24     15.09%    100.00%
system.ruby.Directory_Controller.M_PutML1C1_0.Stallreqto_in::total          159                      
system.ruby.Directory_Controller.Stallreqto_in |         364     30.43%     30.43% |         338     28.26%     58.70% |         260     21.74%     80.43% |         234     19.57%    100.00%
system.ruby.Directory_Controller.Stallreqto_in::total         1196                      
system.ruby.Directory_Controller.allocTBE |     7658426     16.89%     16.89% |    17601430     38.81%     55.70% |    12141945     26.77%     82.47% |     7951812     17.53%    100.00%
system.ruby.Directory_Controller.allocTBE::total     45353613                      
system.ruby.Directory_Controller.deallocTBE |     7658426     16.89%     16.89% |    17601430     38.81%     55.70% |    12141945     26.77%     82.47% |     7951812     17.53%    100.00%
system.ruby.Directory_Controller.deallocTBE::total     45353613                      
system.ruby.IFETCH.hit_latency_hist_seqr::bucket_size            1                      
system.ruby.IFETCH.hit_latency_hist_seqr::max_bucket            9                      
system.ruby.IFETCH.hit_latency_hist_seqr::samples    448477436                      
system.ruby.IFETCH.hit_latency_hist_seqr |   448477436    100.00%    100.00% |           0      0.00%    100.00% |           0      0.00%    100.00% |           0      0.00%    100.00% |           0      0.00%    100.00% |           0      0.00%    100.00% |           0      0.00%    100.00% |           0      0.00%    100.00% |           0      0.00%    100.00% |           0      0.00%    100.00%
system.ruby.IFETCH.hit_latency_hist_seqr::total    448477436                      
system.ruby.IFETCH.latency_hist_seqr::bucket_size            1                      
system.ruby.IFETCH.latency_hist_seqr::max_bucket            9                      
system.ruby.IFETCH.latency_hist_seqr::samples    490740442                      
system.ruby.IFETCH.latency_hist_seqr     |   490740442    100.00%    100.00% |           0      0.00%    100.00% |           0      0.00%    100.00% |           0      0.00%    100.00% |           0      0.00%    100.00% |           0      0.00%    100.00% |           0      0.00%    100.00% |           0      0.00%    100.00% |           0      0.00%    100.00% |           0      0.00%    100.00%
system.ruby.IFETCH.latency_hist_seqr::total    490740442                      
system.ruby.IFETCH.miss_latency_hist_seqr::bucket_size            1                      
system.ruby.IFETCH.miss_latency_hist_seqr::max_bucket            9                      
system.ruby.IFETCH.miss_latency_hist_seqr::samples     42263006                      
system.ruby.IFETCH.miss_latency_hist_seqr |    42263006    100.00%    100.00% |           0      0.00%    100.00% |           0      0.00%    100.00% |           0      0.00%    100.00% |           0      0.00%    100.00% |           0      0.00%    100.00% |           0      0.00%    100.00% |           0      0.00%    100.00% |           0      0.00%    100.00% |           0      0.00%    100.00%
system.ruby.IFETCH.miss_latency_hist_seqr::total     42263006                      
system.ruby.L1Cache_Controller.I.allocI_load |    11423472     25.71%     25.71% |    10967808     24.69%     50.40% |    10536722     23.72%     74.12% |    11499437     25.88%    100.00%
system.ruby.L1Cache_Controller.I.allocI_load::total     44427439                      
system.ruby.L1Cache_Controller.I.allocI_store |       14240     45.24%     45.24% |        4394     13.96%     59.20% |        6600     20.97%     80.17% |        6240     19.83%    100.00%
system.ruby.L1Cache_Controller.I.allocI_store::total        31474                      
system.ruby.L1Cache_Controller.I.deallocfwdfrom_in |    11436956     25.73%     25.73% |    10971749     24.68%     50.41% |    10542903     23.72%     74.12% |    11505007     25.88%    100.00%
system.ruby.L1Cache_Controller.I.deallocfwdfrom_in::total     44456615                      
system.ruby.L1Cache_Controller.I_load.Stallfwdfrom_in |      595055     25.00%     25.00% |      631345     26.53%     51.53% |      555444     23.34%     74.87% |      598065     25.13%    100.00%
system.ruby.L1Cache_Controller.I_load.Stallfwdfrom_in::total      2379909                      
system.ruby.L1Cache_Controller.I_x_M_evict.Progress |          15      6.88%      6.88% |          16      7.34%     14.22% |         176     80.73%     94.95% |          11      5.05%    100.00%
system.ruby.L1Cache_Controller.I_x_M_evict.Progress::total          218                      
system.ruby.L1Cache_Controller.I_x_M_evict.Stallmandatory_in |          51      5.92%      5.92% |          62      7.20%     13.12% |         704     81.77%     94.89% |          44      5.11%    100.00%
system.ruby.L1Cache_Controller.I_x_M_evict.Stallmandatory_in::total          861                      
system.ruby.L1Cache_Controller.M.MloadMEvent |   147005558     25.62%     25.62% |   139992781     24.39%     50.01% |   133592907     23.28%     73.29% |   153309468     26.71%    100.00%
system.ruby.L1Cache_Controller.M.MloadMEvent::total    573900714                      
system.ruby.L1Cache_Controller.M.MstoreMEvent |    16056593     25.79%     25.79% |    15171477     24.37%     50.15% |    14476807     23.25%     73.41% |    16558911     26.59%    100.00%
system.ruby.L1Cache_Controller.M.MstoreMEvent::total     62263788                      
system.ruby.L1Cache_Controller.M.allocTBE |    11436956     25.73%     25.73% |    10971749     24.68%     50.41% |    10542903     23.72%     74.12% |    11505007     25.88%    100.00%
system.ruby.L1Cache_Controller.M.allocTBE::total     44456615                      
system.ruby.L1Cache_Controller.M.externalloadMrespfrom_in |    11423472     25.71%     25.71% |    10967807     24.69%     50.40% |    10536721     23.72%     74.12% |    11499436     25.88%    100.00%
system.ruby.L1Cache_Controller.M.externalloadMrespfrom_in::total     44427436                      
system.ruby.L1Cache_Controller.M.externalstoreMrespfrom_in |       14240     45.24%     45.24% |        4394     13.96%     59.20% |        6600     20.97%     80.17% |        6240     19.83%    100.00%
system.ruby.L1Cache_Controller.M.externalstoreMrespfrom_in::total        31474                      
system.ruby.L1Cache_Controller.M_evict.Stallmandatory_in |      297417     28.66%     28.66% |      231108     22.27%     50.93% |      263429     25.38%     76.31% |      245810     23.69%    100.00%
system.ruby.L1Cache_Controller.M_evict.Stallmandatory_in::total      1037764                      
system.ruby.L1Cache_Controller.MloadMEvent |   147005558     25.62%     25.62% |   139992781     24.39%     50.01% |   133592907     23.28%     73.29% |   153309468     26.71%    100.00%
system.ruby.L1Cache_Controller.MloadMEvent::total    573900714                      
system.ruby.L1Cache_Controller.MstoreMEvent |    16056593     25.79%     25.79% |    15171477     24.37%     50.15% |    14476807     23.25%     73.41% |    16558911     26.59%    100.00%
system.ruby.L1Cache_Controller.MstoreMEvent::total     62263788                      
system.ruby.L1Cache_Controller.Progress  |          15      6.88%      6.88% |          16      7.34%     14.22% |         176     80.73%     94.95% |          11      5.05%    100.00%
system.ruby.L1Cache_Controller.Progress::total          218                      
system.ruby.L1Cache_Controller.Stallfwdfrom_in |      595055     25.00%     25.00% |      631345     26.53%     51.53% |      555444     23.34%     74.87% |      598065     25.13%    100.00%
system.ruby.L1Cache_Controller.Stallfwdfrom_in::total      2379909                      
system.ruby.L1Cache_Controller.Stallmandatory_in |      297468     28.64%     28.64% |      231170     22.26%     50.90% |      264133     25.43%     76.33% |      245854     23.67%    100.00%
system.ruby.L1Cache_Controller.Stallmandatory_in::total      1038625                      
system.ruby.L1Cache_Controller.allocI_load |    11423472     25.71%     25.71% |    10967808     24.69%     50.40% |    10536722     23.72%     74.12% |    11499437     25.88%    100.00%
system.ruby.L1Cache_Controller.allocI_load::total     44427439                      
system.ruby.L1Cache_Controller.allocI_store |       14240     45.24%     45.24% |        4394     13.96%     59.20% |        6600     20.97%     80.17% |        6240     19.83%    100.00%
system.ruby.L1Cache_Controller.allocI_store::total        31474                      
system.ruby.L1Cache_Controller.allocTBE  |    11436956     25.73%     25.73% |    10971749     24.68%     50.41% |    10542903     23.72%     74.12% |    11505007     25.88%    100.00%
system.ruby.L1Cache_Controller.allocTBE::total     44456615                      
system.ruby.L1Cache_Controller.deallocfwdfrom_in |    11436956     25.73%     25.73% |    10971749     24.68%     50.41% |    10542903     23.72%     74.12% |    11505007     25.88%    100.00%
system.ruby.L1Cache_Controller.deallocfwdfrom_in::total     44456615                      
system.ruby.L1Cache_Controller.externalloadMrespfrom_in |    11423472     25.71%     25.71% |    10967807     24.69%     50.40% |    10536721     23.72%     74.12% |    11499436     25.88%    100.00%
system.ruby.L1Cache_Controller.externalloadMrespfrom_in::total     44427436                      
system.ruby.L1Cache_Controller.externalstoreMrespfrom_in |       14240     45.24%     45.24% |        4394     13.96%     59.20% |        6600     20.97%     80.17% |        6240     19.83%    100.00%
system.ruby.L1Cache_Controller.externalstoreMrespfrom_in::total        31474                      
system.ruby.LD.hit_latency_hist_seqr::bucket_size            1                      
system.ruby.LD.hit_latency_hist_seqr::max_bucket            9                      
system.ruby.LD.hit_latency_hist_seqr::samples    125423278                      
system.ruby.LD.hit_latency_hist_seqr     |   125423278    100.00%    100.00% |           0      0.00%    100.00% |           0      0.00%    100.00% |           0      0.00%    100.00% |           0      0.00%    100.00% |           0      0.00%    100.00% |           0      0.00%    100.00% |           0      0.00%    100.00% |           0      0.00%    100.00% |           0      0.00%    100.00%
system.ruby.LD.hit_latency_hist_seqr::total    125423278                      
system.ruby.LD.latency_hist_seqr::bucket_size            1                      
system.ruby.LD.latency_hist_seqr::max_bucket            9                      
system.ruby.LD.latency_hist_seqr::samples    127587708                      
system.ruby.LD.latency_hist_seqr         |   127587708    100.00%    100.00% |           0      0.00%    100.00% |           0      0.00%    100.00% |           0      0.00%    100.00% |           0      0.00%    100.00% |           0      0.00%    100.00% |           0      0.00%    100.00% |           0      0.00%    100.00% |           0      0.00%    100.00% |           0      0.00%    100.00%
system.ruby.LD.latency_hist_seqr::total     127587708                      
system.ruby.LD.miss_latency_hist_seqr::bucket_size            1                      
system.ruby.LD.miss_latency_hist_seqr::max_bucket            9                      
system.ruby.LD.miss_latency_hist_seqr::samples      2164430                      
system.ruby.LD.miss_latency_hist_seqr    |     2164430    100.00%    100.00% |           0      0.00%    100.00% |           0      0.00%    100.00% |           0      0.00%    100.00% |           0      0.00%    100.00% |           0      0.00%    100.00% |           0      0.00%    100.00% |           0      0.00%    100.00% |           0      0.00%    100.00% |           0      0.00%    100.00%
system.ruby.LD.miss_latency_hist_seqr::total      2164430                      
system.ruby.Locked_RMW_Read.hit_latency_hist_seqr::bucket_size            1                      
system.ruby.Locked_RMW_Read.hit_latency_hist_seqr::max_bucket            9                      
system.ruby.Locked_RMW_Read.hit_latency_hist_seqr::samples        27566                      
system.ruby.Locked_RMW_Read.hit_latency_hist_seqr |       27566    100.00%    100.00% |           0      0.00%    100.00% |           0      0.00%    100.00% |           0      0.00%    100.00% |           0      0.00%    100.00% |           0      0.00%    100.00% |           0      0.00%    100.00% |           0      0.00%    100.00% |           0      0.00%    100.00% |           0      0.00%    100.00%
system.ruby.Locked_RMW_Read.hit_latency_hist_seqr::total        27566                      
system.ruby.Locked_RMW_Read.latency_hist_seqr::bucket_size            1                      
system.ruby.Locked_RMW_Read.latency_hist_seqr::max_bucket            9                      
system.ruby.Locked_RMW_Read.latency_hist_seqr::samples        30579                      
system.ruby.Locked_RMW_Read.latency_hist_seqr |       30579    100.00%    100.00% |           0      0.00%    100.00% |           0      0.00%    100.00% |           0      0.00%    100.00% |           0      0.00%    100.00% |           0      0.00%    100.00% |           0      0.00%    100.00% |           0      0.00%    100.00% |           0      0.00%    100.00% |           0      0.00%    100.00%
system.ruby.Locked_RMW_Read.latency_hist_seqr::total        30579                      
system.ruby.Locked_RMW_Read.miss_latency_hist_seqr::bucket_size            1                      
system.ruby.Locked_RMW_Read.miss_latency_hist_seqr::max_bucket            9                      
system.ruby.Locked_RMW_Read.miss_latency_hist_seqr::samples         3013                      
system.ruby.Locked_RMW_Read.miss_latency_hist_seqr |        3013    100.00%    100.00% |           0      0.00%    100.00% |           0      0.00%    100.00% |           0      0.00%    100.00% |           0      0.00%    100.00% |           0      0.00%    100.00% |           0      0.00%    100.00% |           0      0.00%    100.00% |           0      0.00%    100.00% |           0      0.00%    100.00%
system.ruby.Locked_RMW_Read.miss_latency_hist_seqr::total         3013                      
system.ruby.Locked_RMW_Write.hit_latency_hist_seqr::bucket_size            1                      
system.ruby.Locked_RMW_Write.hit_latency_hist_seqr::max_bucket            9                      
system.ruby.Locked_RMW_Write.hit_latency_hist_seqr::samples        30579                      
system.ruby.Locked_RMW_Write.hit_latency_hist_seqr |       30579    100.00%    100.00% |           0      0.00%    100.00% |           0      0.00%    100.00% |           0      0.00%    100.00% |           0      0.00%    100.00% |           0      0.00%    100.00% |           0      0.00%    100.00% |           0      0.00%    100.00% |           0      0.00%    100.00% |           0      0.00%    100.00%
system.ruby.Locked_RMW_Write.hit_latency_hist_seqr::total        30579                      
system.ruby.Locked_RMW_Write.latency_hist_seqr::bucket_size            1                      
system.ruby.Locked_RMW_Write.latency_hist_seqr::max_bucket            9                      
system.ruby.Locked_RMW_Write.latency_hist_seqr::samples        30579                      
system.ruby.Locked_RMW_Write.latency_hist_seqr |       30579    100.00%    100.00% |           0      0.00%    100.00% |           0      0.00%    100.00% |           0      0.00%    100.00% |           0      0.00%    100.00% |           0      0.00%    100.00% |           0      0.00%    100.00% |           0      0.00%    100.00% |           0      0.00%    100.00% |           0      0.00%    100.00%
system.ruby.Locked_RMW_Write.latency_hist_seqr::total        30579                      
system.ruby.RMW_Read.hit_latency_hist_seqr::bucket_size            1                      
system.ruby.RMW_Read.hit_latency_hist_seqr::max_bucket            9                      
system.ruby.RMW_Read.hit_latency_hist_seqr::samples      6290554                      
system.ruby.RMW_Read.hit_latency_hist_seqr |     6290554    100.00%    100.00% |           0      0.00%    100.00% |           0      0.00%    100.00% |           0      0.00%    100.00% |           0      0.00%    100.00% |           0      0.00%    100.00% |           0      0.00%    100.00% |           0      0.00%    100.00% |           0      0.00%    100.00% |           0      0.00%    100.00%
system.ruby.RMW_Read.hit_latency_hist_seqr::total      6290554                      
system.ruby.RMW_Read.latency_hist_seqr::bucket_size            1                      
system.ruby.RMW_Read.latency_hist_seqr::max_bucket            9                      
system.ruby.RMW_Read.latency_hist_seqr::samples      6298018                      
system.ruby.RMW_Read.latency_hist_seqr   |     6298018    100.00%    100.00% |           0      0.00%    100.00% |           0      0.00%    100.00% |           0      0.00%    100.00% |           0      0.00%    100.00% |           0      0.00%    100.00% |           0      0.00%    100.00% |           0      0.00%    100.00% |           0      0.00%    100.00% |           0      0.00%    100.00%
system.ruby.RMW_Read.latency_hist_seqr::total      6298018                      
system.ruby.RMW_Read.miss_latency_hist_seqr::bucket_size            1                      
system.ruby.RMW_Read.miss_latency_hist_seqr::max_bucket            9                      
system.ruby.RMW_Read.miss_latency_hist_seqr::samples         7464                      
system.ruby.RMW_Read.miss_latency_hist_seqr |        7464    100.00%    100.00% |           0      0.00%    100.00% |           0      0.00%    100.00% |           0      0.00%    100.00% |           0      0.00%    100.00% |           0      0.00%    100.00% |           0      0.00%    100.00% |           0      0.00%    100.00% |           0      0.00%    100.00% |           0      0.00%    100.00%
system.ruby.RMW_Read.miss_latency_hist_seqr::total         7464                      
system.ruby.ST.hit_latency_hist_seqr::bucket_size            1                      
system.ruby.ST.hit_latency_hist_seqr::max_bucket            9                      
system.ruby.ST.hit_latency_hist_seqr::samples     55915089                      
system.ruby.ST.hit_latency_hist_seqr     |    55915089    100.00%    100.00% |           0      0.00%    100.00% |           0      0.00%    100.00% |           0      0.00%    100.00% |           0      0.00%    100.00% |           0      0.00%    100.00% |           0      0.00%    100.00% |           0      0.00%    100.00% |           0      0.00%    100.00% |           0      0.00%    100.00%
system.ruby.ST.hit_latency_hist_seqr::total     55915089                      
system.ruby.ST.latency_hist_seqr::bucket_size            1                      
system.ruby.ST.latency_hist_seqr::max_bucket            9                      
system.ruby.ST.latency_hist_seqr::samples     55936086                      
system.ruby.ST.latency_hist_seqr         |    55936086    100.00%    100.00% |           0      0.00%    100.00% |           0      0.00%    100.00% |           0      0.00%    100.00% |           0      0.00%    100.00% |           0      0.00%    100.00% |           0      0.00%    100.00% |           0      0.00%    100.00% |           0      0.00%    100.00% |           0      0.00%    100.00%
system.ruby.ST.latency_hist_seqr::total      55936086                      
system.ruby.ST.miss_latency_hist_seqr::bucket_size            1                      
system.ruby.ST.miss_latency_hist_seqr::max_bucket            9                      
system.ruby.ST.miss_latency_hist_seqr::samples        20997                      
system.ruby.ST.miss_latency_hist_seqr    |       20997    100.00%    100.00% |           0      0.00%    100.00% |           0      0.00%    100.00% |           0      0.00%    100.00% |           0      0.00%    100.00% |           0      0.00%    100.00% |           0      0.00%    100.00% |           0      0.00%    100.00% |           0      0.00%    100.00% |           0      0.00%    100.00%
system.ruby.ST.miss_latency_hist_seqr::total        20997                      
system.ruby.dir_cntrl0.fwdFrom.avg_buf_msgs     0.005320                       # Average number of messages in buffer
system.ruby.dir_cntrl0.fwdFrom.avg_stall_time   499.998084                       # Average number of cycles messages are stalled in this MB
system.ruby.dir_cntrl0.reqTo.avg_buf_msgs     0.005490                       # Average number of messages in buffer
system.ruby.dir_cntrl0.reqTo.avg_stall_time 14039.291671                       # Average number of cycles messages are stalled in this MB
system.ruby.dir_cntrl0.requestToMemory.avg_buf_msgs     0.001672                       # Average number of messages in buffer
system.ruby.dir_cntrl0.requestToMemory.avg_stall_time  2499.999941                       # Average number of cycles messages are stalled in this MB
system.ruby.dir_cntrl0.respFrom.avg_buf_msgs     0.000167                       # Average number of messages in buffer
system.ruby.dir_cntrl0.respFrom.avg_stall_time   499.999928                       # Average number of cycles messages are stalled in this MB
system.ruby.dir_cntrl0.responseFromMemory.avg_buf_msgs     0.000334                       # Average number of messages in buffer
system.ruby.dir_cntrl0.responseFromMemory.avg_stall_time   499.999928                       # Average number of cycles messages are stalled in this MB
system.ruby.dir_cntrl1.fwdFrom.avg_buf_msgs     0.012445                       # Average number of messages in buffer
system.ruby.dir_cntrl1.fwdFrom.avg_stall_time   499.997728                       # Average number of cycles messages are stalled in this MB
system.ruby.dir_cntrl1.reqTo.avg_buf_msgs     0.012615                       # Average number of messages in buffer
system.ruby.dir_cntrl1.reqTo.avg_stall_time 14025.905717                       # Average number of cycles messages are stalled in this MB
system.ruby.dir_cntrl1.requestToMemory.avg_buf_msgs     0.001676                       # Average number of messages in buffer
system.ruby.dir_cntrl1.requestToMemory.avg_stall_time  2499.999934                       # Average number of cycles messages are stalled in this MB
system.ruby.dir_cntrl1.respFrom.avg_buf_msgs     0.000168                       # Average number of messages in buffer
system.ruby.dir_cntrl1.respFrom.avg_stall_time   499.999926                       # Average number of cycles messages are stalled in this MB
system.ruby.dir_cntrl1.responseFromMemory.avg_buf_msgs     0.000335                       # Average number of messages in buffer
system.ruby.dir_cntrl1.responseFromMemory.avg_stall_time   499.999927                       # Average number of cycles messages are stalled in this MB
system.ruby.dir_cntrl2.fwdFrom.avg_buf_msgs     0.008549                       # Average number of messages in buffer
system.ruby.dir_cntrl2.fwdFrom.avg_stall_time   499.991862                       # Average number of cycles messages are stalled in this MB
system.ruby.dir_cntrl2.reqTo.avg_buf_msgs     0.008702                       # Average number of messages in buffer
system.ruby.dir_cntrl2.reqTo.avg_stall_time 14047.372227                       # Average number of cycles messages are stalled in this MB
system.ruby.dir_cntrl2.requestToMemory.avg_buf_msgs     0.001514                       # Average number of messages in buffer
system.ruby.dir_cntrl2.requestToMemory.avg_stall_time  2499.998698                       # Average number of cycles messages are stalled in this MB
system.ruby.dir_cntrl2.respFrom.avg_buf_msgs     0.000152                       # Average number of messages in buffer
system.ruby.dir_cntrl2.respFrom.avg_stall_time   499.999679                       # Average number of cycles messages are stalled in this MB
system.ruby.dir_cntrl2.responseFromMemory.avg_buf_msgs     0.000303                       # Average number of messages in buffer
system.ruby.dir_cntrl2.responseFromMemory.avg_stall_time   499.999679                       # Average number of cycles messages are stalled in this MB
system.ruby.dir_cntrl3.fwdFrom.avg_buf_msgs     0.005542                       # Average number of messages in buffer
system.ruby.dir_cntrl3.fwdFrom.avg_stall_time   499.998052                       # Average number of cycles messages are stalled in this MB
system.ruby.dir_cntrl3.reqTo.avg_buf_msgs     0.005700                       # Average number of messages in buffer
system.ruby.dir_cntrl3.reqTo.avg_stall_time 14024.826983                       # Average number of cycles messages are stalled in this MB
system.ruby.dir_cntrl3.requestToMemory.avg_buf_msgs     0.001556                       # Average number of messages in buffer
system.ruby.dir_cntrl3.requestToMemory.avg_stall_time  2499.999074                       # Average number of cycles messages are stalled in this MB
system.ruby.dir_cntrl3.respFrom.avg_buf_msgs     0.000156                       # Average number of messages in buffer
system.ruby.dir_cntrl3.respFrom.avg_stall_time   499.999754                       # Average number of cycles messages are stalled in this MB
system.ruby.dir_cntrl3.responseFromMemory.avg_buf_msgs     0.000311                       # Average number of messages in buffer
system.ruby.dir_cntrl3.responseFromMemory.avg_stall_time   499.999755                       # Average number of cycles messages are stalled in this MB
system.ruby.dma_cntrl0.cache.demand_accesses            0                       # Number of cache demand accesses
system.ruby.dma_cntrl0.cache.demand_hits            0                       # Number of cache demand hits
system.ruby.dma_cntrl0.cache.demand_misses            0                       # Number of cache demand misses
system.ruby.hit_latency_hist_seqr::bucket_size            1                      
system.ruby.hit_latency_hist_seqr::max_bucket            9                      
system.ruby.hit_latency_hist_seqr::samples    636164502                      
system.ruby.hit_latency_hist_seqr        |   636164502    100.00%    100.00% |           0      0.00%    100.00% |           0      0.00%    100.00% |           0      0.00%    100.00% |           0      0.00%    100.00% |           0      0.00%    100.00% |           0      0.00%    100.00% |           0      0.00%    100.00% |           0      0.00%    100.00% |           0      0.00%    100.00%
system.ruby.hit_latency_hist_seqr::total    636164502                      
system.ruby.io_controller.cache.demand_accesses            0                       # Number of cache demand accesses
system.ruby.io_controller.cache.demand_hits            0                       # Number of cache demand hits
system.ruby.io_controller.cache.demand_misses            0                       # Number of cache demand misses
system.ruby.l1_cntrl0.cache.demand_accesses            0                       # Number of cache demand accesses
system.ruby.l1_cntrl0.cache.demand_hits             0                       # Number of cache demand hits
system.ruby.l1_cntrl0.cache.demand_misses            0                       # Number of cache demand misses
system.ruby.l1_cntrl0.fully_busy_cycles           198                       # cycles for which number of transistions == max transitions
system.ruby.l1_cntrl0.fwdFrom.avg_buf_msgs     0.012459                       # Average number of messages in buffer
system.ruby.l1_cntrl0.fwdFrom.avg_stall_time 14931.008412                       # Average number of cycles messages are stalled in this MB
system.ruby.l1_cntrl0.mandatoryQueue.avg_buf_msgs     0.136330                       # Average number of messages in buffer
system.ruby.l1_cntrl0.mandatoryQueue.avg_stall_time  1087.316820                       # Average number of cycles messages are stalled in this MB
system.ruby.l1_cntrl0.reqTo.avg_buf_msgs     0.008387                       # Average number of messages in buffer
system.ruby.l1_cntrl0.reqTo.avg_stall_time   499.999999                       # Average number of cycles messages are stalled in this MB
system.ruby.l1_cntrl0.respFrom.avg_buf_msgs     0.008196                       # Average number of messages in buffer
system.ruby.l1_cntrl0.respFrom.avg_stall_time 14516.901115                       # Average number of cycles messages are stalled in this MB
system.ruby.l1_cntrl0.respTo.avg_buf_msgs     0.008005                       # Average number of messages in buffer
system.ruby.l1_cntrl0.respTo.avg_stall_time   499.983668                       # Average number of cycles messages are stalled in this MB
system.ruby.l1_cntrl1.cache.demand_accesses            0                       # Number of cache demand accesses
system.ruby.l1_cntrl1.cache.demand_hits             0                       # Number of cache demand hits
system.ruby.l1_cntrl1.cache.demand_misses            0                       # Number of cache demand misses
system.ruby.l1_cntrl1.fully_busy_cycles           304                       # cycles for which number of transistions == max transitions
system.ruby.l1_cntrl1.fwdFrom.avg_buf_msgs     0.013378                       # Average number of messages in buffer
system.ruby.l1_cntrl1.fwdFrom.avg_stall_time 14719.025027                       # Average number of cycles messages are stalled in this MB
system.ruby.l1_cntrl1.mandatoryQueue.avg_buf_msgs     0.127629                       # Average number of messages in buffer
system.ruby.l1_cntrl1.mandatoryQueue.avg_stall_time   947.720977                       # Average number of cycles messages are stalled in this MB
system.ruby.l1_cntrl1.reqTo.avg_buf_msgs     0.008007                       # Average number of messages in buffer
system.ruby.l1_cntrl1.reqTo.avg_stall_time   499.998757                       # Average number of cycles messages are stalled in this MB
system.ruby.l1_cntrl1.respFrom.avg_buf_msgs     0.007862                       # Average number of messages in buffer
system.ruby.l1_cntrl1.respFrom.avg_stall_time 14488.059727                       # Average number of cycles messages are stalled in this MB
system.ruby.l1_cntrl1.respTo.avg_buf_msgs     0.007718                       # Average number of messages in buffer
system.ruby.l1_cntrl1.respTo.avg_stall_time   500.009872                       # Average number of cycles messages are stalled in this MB
system.ruby.l1_cntrl2.cache.demand_accesses            0                       # Number of cache demand accesses
system.ruby.l1_cntrl2.cache.demand_hits             0                       # Number of cache demand hits
system.ruby.l1_cntrl2.cache.demand_misses            0                       # Number of cache demand misses
system.ruby.l1_cntrl2.fully_busy_cycles           126                       # cycles for which number of transistions == max transitions
system.ruby.l1_cntrl2.fwdFrom.avg_buf_msgs     0.011535                       # Average number of messages in buffer
system.ruby.l1_cntrl2.fwdFrom.avg_stall_time 15115.385751                       # Average number of cycles messages are stalled in this MB
system.ruby.l1_cntrl2.mandatoryQueue.avg_buf_msgs     0.122835                       # Average number of messages in buffer
system.ruby.l1_cntrl2.mandatoryQueue.avg_stall_time   974.309821                       # Average number of cycles messages are stalled in this MB
system.ruby.l1_cntrl2.reqTo.avg_buf_msgs     0.007710                       # Average number of messages in buffer
system.ruby.l1_cntrl2.reqTo.avg_stall_time   499.999999                       # Average number of cycles messages are stalled in this MB
system.ruby.l1_cntrl2.respFrom.avg_buf_msgs     0.007555                       # Average number of messages in buffer
system.ruby.l1_cntrl2.respFrom.avg_stall_time 14412.796667                       # Average number of cycles messages are stalled in this MB
system.ruby.l1_cntrl2.respTo.avg_buf_msgs     0.007400                       # Average number of messages in buffer
system.ruby.l1_cntrl2.respTo.avg_stall_time   500.003369                       # Average number of cycles messages are stalled in this MB
system.ruby.l1_cntrl3.cache.demand_accesses            0                       # Number of cache demand accesses
system.ruby.l1_cntrl3.cache.demand_hits             0                       # Number of cache demand hits
system.ruby.l1_cntrl3.cache.demand_misses            0                       # Number of cache demand misses
system.ruby.l1_cntrl3.fully_busy_cycles           168                       # cycles for which number of transistions == max transitions
system.ruby.l1_cntrl3.fwdFrom.avg_buf_msgs     0.012530                       # Average number of messages in buffer
system.ruby.l1_cntrl3.fwdFrom.avg_stall_time 14885.877544                       # Average number of cycles messages are stalled in this MB
system.ruby.l1_cntrl3.mandatoryQueue.avg_buf_msgs     0.138979                       # Average number of messages in buffer
system.ruby.l1_cntrl3.mandatoryQueue.avg_stall_time   975.536047                       # Average number of cycles messages are stalled in this MB
system.ruby.l1_cntrl3.reqTo.avg_buf_msgs     0.008396                       # Average number of messages in buffer
system.ruby.l1_cntrl3.reqTo.avg_stall_time   499.450713                       # Average number of cycles messages are stalled in this MB
system.ruby.l1_cntrl3.respFrom.avg_buf_msgs     0.008245                       # Average number of messages in buffer
system.ruby.l1_cntrl3.respFrom.avg_stall_time 14491.460985                       # Average number of cycles messages are stalled in this MB
system.ruby.l1_cntrl3.respTo.avg_buf_msgs     0.008093                       # Average number of messages in buffer
system.ruby.l1_cntrl3.respTo.avg_stall_time   499.453279                       # Average number of cycles messages are stalled in this MB
system.ruby.latency_hist_seqr::bucket_size            1                      
system.ruby.latency_hist_seqr::max_bucket            9                      
system.ruby.latency_hist_seqr::samples      680623412                      
system.ruby.latency_hist_seqr            |   680623412    100.00%    100.00% |           0      0.00%    100.00% |           0      0.00%    100.00% |           0      0.00%    100.00% |           0      0.00%    100.00% |           0      0.00%    100.00% |           0      0.00%    100.00% |           0      0.00%    100.00% |           0      0.00%    100.00% |           0      0.00%    100.00%
system.ruby.latency_hist_seqr::total        680623412                      
system.ruby.miss_latency_hist_seqr::bucket_size            1                      
system.ruby.miss_latency_hist_seqr::max_bucket            9                      
system.ruby.miss_latency_hist_seqr::samples     44458910                      
system.ruby.miss_latency_hist_seqr       |    44458910    100.00%    100.00% |           0      0.00%    100.00% |           0      0.00%    100.00% |           0      0.00%    100.00% |           0      0.00%    100.00% |           0      0.00%    100.00% |           0      0.00%    100.00% |           0      0.00%    100.00% |           0      0.00%    100.00% |           0      0.00%    100.00%
system.ruby.miss_latency_hist_seqr::total     44458910                      
system.ruby.network.average_flit_latency    16.781800                      
system.ruby.network.average_flit_network_latency    15.781794                      
system.ruby.network.average_flit_queueing_latency     1.000006                      
system.ruby.network.average_flit_vnet_latency |   15.970579                       |   16.331103                       |   15.058284                       |         nan                       |         nan                       |         nan                       |         nan                       |         nan                      
system.ruby.network.average_flit_vqueue_latency |    1.000018                       |    1.000000                       |           1                       |         nan                       |         nan                       |         nan                       |         nan                       |         nan                      
system.ruby.network.average_hops             1.095740                      
system.ruby.network.average_packet_latency    26.813804                      
system.ruby.network.average_packet_network_latency    25.813798                      
system.ruby.network.average_packet_queueing_latency     1.000006                      
system.ruby.network.average_packet_vnet_latency |   26.007074                       |   26.353760                       |   25.095048                       |         nan                       |         nan                       |         nan                       |         nan                       |         nan                      
system.ruby.network.average_packet_vqueue_latency |    1.000018                       |    1.000000                       |           1                       |         nan                       |         nan                       |         nan                       |         nan                       |         nan                      
system.ruby.network.avg_link_utilization     1.489269                      
system.ruby.network.avg_vc_load          |    0.403676     27.11%     27.11% |    0.042056      2.82%     29.93% |    0.039823      2.67%     32.60% |    0.039823      2.67%     35.28% |    0.344976     23.16%     58.44% |    0.052482      3.52%     61.97% |    0.039856      2.68%     64.64% |    0.039821      2.67%     67.32% |    0.341993     22.96%     90.28% |    0.062745      4.21%     94.49% |    0.041388      2.78%     97.27% |    0.040631      2.73%    100.00% |           0      0.00%    100.00% |           0      0.00%    100.00% |           0      0.00%    100.00% |           0      0.00%    100.00% |           0      0.00%    100.00% |           0      0.00%    100.00% |           0      0.00%    100.00% |           0      0.00%    100.00% |           0      0.00%    100.00% |           0      0.00%    100.00% |           0      0.00%    100.00% |           0      0.00%    100.00% |           0      0.00%    100.00% |           0      0.00%    100.00% |           0      0.00%    100.00% |           0      0.00%    100.00% |           0      0.00%    100.00% |           0      0.00%    100.00% |           0      0.00%    100.00% |           0      0.00%    100.00%
system.ruby.network.avg_vc_load::total       1.489269                      
system.ruby.network.ext_in_link_utilization    671346786                      
system.ruby.network.ext_out_link_utilization    671346784                      
system.ruby.network.flit_network_latency |  3550172671                       |  3630145663                       |  3414738017                       |           0                       |           0                       |           0                       |           0                       |           0                      
system.ruby.network.flit_queueing_latency |   222298532                       |   222284171                       |   226768065                       |           0                       |           0                       |           0                       |           0                       |           0                      
system.ruby.network.flits_injected       |   222294555     33.11%     33.11% |   222284175     33.11%     66.22% |   226768065     33.78%    100.00% |           0      0.00%    100.00% |           0      0.00%    100.00% |           0      0.00%    100.00% |           0      0.00%    100.00% |           0      0.00%    100.00%
system.ruby.network.flits_injected::total    671346795                      
system.ruby.network.flits_received       |   222294552     33.11%     33.11% |   222284166     33.11%     66.22% |   226768065     33.78%    100.00% |           0      0.00%    100.00% |           0      0.00%    100.00% |           0      0.00%    100.00% |           0      0.00%    100.00% |           0      0.00%    100.00%
system.ruby.network.flits_received::total    671346783                      
system.ruby.network.int_link_utilization    735621505                      
system.ruby.network.packet_network_latency |  1156246175                       |  1171604723                       |  1138151097                       |           0                       |           0                       |           0                       |           0                       |           0                      
system.ruby.network.packet_queueing_latency |    44459706                       |    44456834                       |    45353613                       |           0                       |           0                       |           0                       |           0                       |           0                      
system.ruby.network.packets_injected     |    44458911     33.11%     33.11% |    44456835     33.11%     66.22% |    45353613     33.78%    100.00% |           0      0.00%    100.00% |           0      0.00%    100.00% |           0      0.00%    100.00% |           0      0.00%    100.00% |           0      0.00%    100.00%
system.ruby.network.packets_injected::total    134269359                      
system.ruby.network.packets_received     |    44458910     33.11%     33.11% |    44456833     33.11%     66.22% |    45353613     33.78%    100.00% |           0      0.00%    100.00% |           0      0.00%    100.00% |           0      0.00%    100.00% |           0      0.00%    100.00% |           0      0.00%    100.00%
system.ruby.network.packets_received::total    134269356                      
system.ruby.network.routers0.buffer_reads    335891115                      
system.ruby.network.routers0.buffer_writes    335891115                      
system.ruby.network.routers0.crossbar_activity    335891115                      
system.ruby.network.routers0.sw_input_arbiter_activity    338788686                      
system.ruby.network.routers0.sw_output_arbiter_activity    335891115                      
system.ruby.network.routers1.buffer_reads    389854134                      
system.ruby.network.routers1.buffer_writes    389854134                      
system.ruby.network.routers1.crossbar_activity    389854134                      
system.ruby.network.routers1.sw_input_arbiter_activity    393895293                      
system.ruby.network.routers1.sw_output_arbiter_activity    389854134                      
system.ruby.network.routers2.buffer_reads    341825326                      
system.ruby.network.routers2.buffer_writes    341825326                      
system.ruby.network.routers2.crossbar_activity    341825326                      
system.ruby.network.routers2.sw_input_arbiter_activity    344841447                      
system.ruby.network.routers2.sw_output_arbiter_activity    341825326                      
system.ruby.network.routers3.buffer_reads    339397715                      
system.ruby.network.routers3.buffer_writes    339397715                      
system.ruby.network.routers3.crossbar_activity    339397715                      
system.ruby.network.routers3.sw_input_arbiter_activity    342196165                      
system.ruby.network.routers3.sw_output_arbiter_activity    339397715                      
system.ruby.outstanding_req_hist_seqr::bucket_size            1                      
system.ruby.outstanding_req_hist_seqr::max_bucket            9                      
system.ruby.outstanding_req_hist_seqr::samples    680623415                      
system.ruby.outstanding_req_hist_seqr::mean     1.000000                      
system.ruby.outstanding_req_hist_seqr::gmean     1.000000                      
system.ruby.outstanding_req_hist_seqr::stdev     0.000138                      
system.ruby.outstanding_req_hist_seqr    |           0      0.00%      0.00% |   680623402    100.00%    100.00% |          13      0.00%    100.00% |           0      0.00%    100.00% |           0      0.00%    100.00% |           0      0.00%    100.00% |           0      0.00%    100.00% |           0      0.00%    100.00% |           0      0.00%    100.00% |           0      0.00%    100.00%
system.ruby.outstanding_req_hist_seqr::total    680623415                      
system.switch_cpus0.Branches                 10818400                       # Number of branches fetched
system.switch_cpus0.committedInsts           87838630                       # Number of instructions committed
system.switch_cpus0.committedOps            171171056                       # Number of ops (including micro ops) committed
system.switch_cpus0.dtb.rdAccesses           34304271                       # TLB accesses on read requests
system.switch_cpus0.dtb.rdMisses                21045                       # TLB misses on read requests
system.switch_cpus0.dtb.wrAccesses           14446239                       # TLB accesses on write requests
system.switch_cpus0.dtb.wrMisses                 2636                       # TLB misses on write requests
system.switch_cpus0.idle_fraction            0.021507                       # Percentage of idle cycles
system.switch_cpus0.itb.rdAccesses                  0                       # TLB accesses on read requests
system.switch_cpus0.itb.rdMisses                    0                       # TLB misses on read requests
system.switch_cpus0.itb.wrAccesses          125676811                       # TLB accesses on write requests
system.switch_cpus0.itb.wrMisses                 2119                       # TLB misses on write requests
system.switch_cpus0.kern.inst.arm                   0                       # number of arm instructions executed
system.switch_cpus0.kern.inst.quiesce               0                       # number of quiesce instructions executed
system.switch_cpus0.not_idle_fraction        0.978493                       # Percentage of non-idle cycles
system.switch_cpus0.numCycles              1395526814                       # number of cpu cycles simulated
system.switch_cpus0.numWorkItemsCompleted            0                       # number of work items this cpu completed
system.switch_cpus0.numWorkItemsStarted             0                       # number of work items this cpu started
system.switch_cpus0.num_busy_cycles      1365513346.213583                       # Number of busy cycles
system.switch_cpus0.num_cc_register_reads     77642176                       # number of times the CC registers were read
system.switch_cpus0.num_cc_register_writes     66576853                       # number of times the CC registers were written
system.switch_cpus0.num_conditional_control_insts     10568255                       # number of instructions that are conditional controls
system.switch_cpus0.num_fp_alu_accesses      62330295                       # Number of float alu accesses
system.switch_cpus0.num_fp_insts             62330295                       # number of float instructions
system.switch_cpus0.num_fp_register_reads     87222284                       # number of times the floating registers were read
system.switch_cpus0.num_fp_register_writes     50881999                       # number of times the floating registers were written
system.switch_cpus0.num_func_calls             191302                       # number of times a function call or return occured
system.switch_cpus0.num_idle_cycles      30013467.786417                       # Number of idle cycles
system.switch_cpus0.num_int_alu_accesses    143673298                       # Number of integer alu accesses
system.switch_cpus0.num_int_insts           143673298                       # number of integer instructions
system.switch_cpus0.num_int_register_reads    292927239                       # number of times the integer registers were read
system.switch_cpus0.num_int_register_writes     95227562                       # number of times the integer registers were written
system.switch_cpus0.num_load_insts           34283222                       # Number of load instructions
system.switch_cpus0.num_mem_refs             48726884                       # number of memory refs
system.switch_cpus0.num_store_insts          14443662                       # Number of store instructions
system.switch_cpus0.num_vec_alu_accesses            0                       # Number of vector alu accesses
system.switch_cpus0.num_vec_insts                   0                       # number of vector instructions
system.switch_cpus0.num_vec_register_reads            0                       # number of times the vector registers were read
system.switch_cpus0.num_vec_register_writes            0                       # number of times the vector registers were written
system.switch_cpus0.op_class::No_OpClass       165878      0.10%      0.10% # Class of executed instruction
system.switch_cpus0.op_class::IntAlu         97005801     56.67%     56.77% # Class of executed instruction
system.switch_cpus0.op_class::IntMult           15630      0.01%     56.78% # Class of executed instruction
system.switch_cpus0.op_class::IntDiv           133972      0.08%     56.86% # Class of executed instruction
system.switch_cpus0.op_class::FloatAdd         802862      0.47%     57.33% # Class of executed instruction
system.switch_cpus0.op_class::FloatCmp              0      0.00%     57.33% # Class of executed instruction
system.switch_cpus0.op_class::FloatCvt           1008      0.00%     57.33% # Class of executed instruction
system.switch_cpus0.op_class::FloatMult             0      0.00%     57.33% # Class of executed instruction
system.switch_cpus0.op_class::FloatMultAcc            0      0.00%     57.33% # Class of executed instruction
system.switch_cpus0.op_class::FloatDiv              0      0.00%     57.33% # Class of executed instruction
system.switch_cpus0.op_class::FloatMisc             0      0.00%     57.33% # Class of executed instruction
system.switch_cpus0.op_class::FloatSqrt             0      0.00%     57.33% # Class of executed instruction
system.switch_cpus0.op_class::SimdAdd             144      0.00%     57.33% # Class of executed instruction
system.switch_cpus0.op_class::SimdAddAcc            0      0.00%     57.33% # Class of executed instruction
system.switch_cpus0.op_class::SimdAlu         1458245      0.85%     58.18% # Class of executed instruction
system.switch_cpus0.op_class::SimdCmp               0      0.00%     58.18% # Class of executed instruction
system.switch_cpus0.op_class::SimdCvt             288      0.00%     58.18% # Class of executed instruction
system.switch_cpus0.op_class::SimdMisc            186      0.00%     58.18% # Class of executed instruction
system.switch_cpus0.op_class::SimdMult              0      0.00%     58.18% # Class of executed instruction
system.switch_cpus0.op_class::SimdMultAcc            0      0.00%     58.18% # Class of executed instruction
system.switch_cpus0.op_class::SimdShift            68      0.00%     58.18% # Class of executed instruction
system.switch_cpus0.op_class::SimdShiftAcc            0      0.00%     58.18% # Class of executed instruction
system.switch_cpus0.op_class::SimdDiv               0      0.00%     58.18% # Class of executed instruction
system.switch_cpus0.op_class::SimdSqrt              0      0.00%     58.18% # Class of executed instruction
system.switch_cpus0.op_class::SimdFloatAdd     11415232      6.67%     64.85% # Class of executed instruction
system.switch_cpus0.op_class::SimdFloatAlu            0      0.00%     64.85% # Class of executed instruction
system.switch_cpus0.op_class::SimdFloatCmp            0      0.00%     64.85% # Class of executed instruction
system.switch_cpus0.op_class::SimdFloatCvt            0      0.00%     64.85% # Class of executed instruction
system.switch_cpus0.op_class::SimdFloatDiv        29632      0.02%     64.86% # Class of executed instruction
system.switch_cpus0.op_class::SimdFloatMisc            0      0.00%     64.86% # Class of executed instruction
system.switch_cpus0.op_class::SimdFloatMult     11415232      6.67%     71.53% # Class of executed instruction
system.switch_cpus0.op_class::SimdFloatMultAcc            0      0.00%     71.53% # Class of executed instruction
system.switch_cpus0.op_class::SimdFloatSqrt            0      0.00%     71.53% # Class of executed instruction
system.switch_cpus0.op_class::SimdReduceAdd            0      0.00%     71.53% # Class of executed instruction
system.switch_cpus0.op_class::SimdReduceAlu            0      0.00%     71.53% # Class of executed instruction
system.switch_cpus0.op_class::SimdReduceCmp            0      0.00%     71.53% # Class of executed instruction
system.switch_cpus0.op_class::SimdFloatReduceAdd            0      0.00%     71.53% # Class of executed instruction
system.switch_cpus0.op_class::SimdFloatReduceCmp            0      0.00%     71.53% # Class of executed instruction
system.switch_cpus0.op_class::SimdAes               0      0.00%     71.53% # Class of executed instruction
system.switch_cpus0.op_class::SimdAesMix            0      0.00%     71.53% # Class of executed instruction
system.switch_cpus0.op_class::SimdSha1Hash            0      0.00%     71.53% # Class of executed instruction
system.switch_cpus0.op_class::SimdSha1Hash2            0      0.00%     71.53% # Class of executed instruction
system.switch_cpus0.op_class::SimdSha256Hash            0      0.00%     71.53% # Class of executed instruction
system.switch_cpus0.op_class::SimdSha256Hash2            0      0.00%     71.53% # Class of executed instruction
system.switch_cpus0.op_class::SimdShaSigma2            0      0.00%     71.53% # Class of executed instruction
system.switch_cpus0.op_class::SimdShaSigma3            0      0.00%     71.53% # Class of executed instruction
system.switch_cpus0.op_class::SimdPredAlu            0      0.00%     71.53% # Class of executed instruction
system.switch_cpus0.op_class::MemRead        10660818      6.23%     77.76% # Class of executed instruction
system.switch_cpus0.op_class::MemWrite        2996518      1.75%     79.51% # Class of executed instruction
system.switch_cpus0.op_class::FloatMemRead     23622404     13.80%     93.31% # Class of executed instruction
system.switch_cpus0.op_class::FloatMemWrite     11447144      6.69%    100.00% # Class of executed instruction
system.switch_cpus0.op_class::IprAccess             0      0.00%    100.00% # Class of executed instruction
system.switch_cpus0.op_class::InstPrefetch            0      0.00%    100.00% # Class of executed instruction
system.switch_cpus0.op_class::total         171171062                       # Class of executed instruction
system.switch_cpus1.Branches                 10224951                       # Number of branches fetched
system.switch_cpus1.committedInsts           83748955                       # Number of instructions committed
system.switch_cpus1.committedOps            162547942                       # Number of ops (including micro ops) committed
system.switch_cpus1.dtb.rdAccesses           32597316                       # TLB accesses on read requests
system.switch_cpus1.dtb.rdMisses                17942                       # TLB misses on read requests
system.switch_cpus1.dtb.wrAccesses           13635979                       # TLB accesses on write requests
system.switch_cpus1.dtb.wrMisses                 2446                       # TLB misses on write requests
system.switch_cpus1.idle_fraction            0.066754                       # Percentage of idle cycles
system.switch_cpus1.itb.rdAccesses                  0                       # TLB accesses on read requests
system.switch_cpus1.itb.rdMisses                    0                       # TLB misses on read requests
system.switch_cpus1.itb.wrAccesses          119840871                       # TLB accesses on write requests
system.switch_cpus1.itb.wrMisses                 1978                       # TLB misses on write requests
system.switch_cpus1.kern.inst.arm                   0                       # number of arm instructions executed
system.switch_cpus1.kern.inst.quiesce               0                       # number of quiesce instructions executed
system.switch_cpus1.not_idle_fraction        0.933246                       # Percentage of non-idle cycles
system.switch_cpus1.numCycles              1395526910                       # number of cpu cycles simulated
system.switch_cpus1.numWorkItemsCompleted            0                       # number of work items this cpu completed
system.switch_cpus1.numWorkItemsStarted             0                       # number of work items this cpu started
system.switch_cpus1.num_busy_cycles      1302369883.883792                       # Number of busy cycles
system.switch_cpus1.num_cc_register_reads     73528880                       # number of times the CC registers were read
system.switch_cpus1.num_cc_register_writes     63376480                       # number of times the CC registers were written
system.switch_cpus1.num_conditional_control_insts      9996521                       # number of instructions that are conditional controls
system.switch_cpus1.num_fp_alu_accesses      59504897                       # Number of float alu accesses
system.switch_cpus1.num_fp_insts             59504897                       # number of float instructions
system.switch_cpus1.num_fp_register_reads     83247042                       # number of times the floating registers were read
system.switch_cpus1.num_fp_register_writes     48577645                       # number of times the floating registers were written
system.switch_cpus1.num_func_calls             170623                       # number of times a function call or return occured
system.switch_cpus1.num_idle_cycles      93157026.116208                       # Number of idle cycles
system.switch_cpus1.num_int_alu_accesses    136395379                       # Number of integer alu accesses
system.switch_cpus1.num_int_insts           136395379                       # number of integer instructions
system.switch_cpus1.num_int_register_reads    277834240                       # number of times the integer registers were read
system.switch_cpus1.num_int_register_writes     90306915                       # number of times the integer registers were written
system.switch_cpus1.num_load_insts           32579812                       # Number of load instructions
system.switch_cpus1.num_mem_refs             46213562                       # number of memory refs
system.switch_cpus1.num_store_insts          13633750                       # Number of store instructions
system.switch_cpus1.num_vec_alu_accesses            0                       # Number of vector alu accesses
system.switch_cpus1.num_vec_insts                   0                       # number of vector instructions
system.switch_cpus1.num_vec_register_reads            0                       # number of times the vector registers were read
system.switch_cpus1.num_vec_register_writes            0                       # number of times the vector registers were written
system.switch_cpus1.op_class::No_OpClass        46029      0.03%      0.03% # Class of executed instruction
system.switch_cpus1.op_class::IntAlu         92148649     56.69%     56.72% # Class of executed instruction
system.switch_cpus1.op_class::IntMult           13663      0.01%     56.73% # Class of executed instruction
system.switch_cpus1.op_class::IntDiv           129833      0.08%     56.81% # Class of executed instruction
system.switch_cpus1.op_class::FloatAdd         782469      0.48%     57.29% # Class of executed instruction
system.switch_cpus1.op_class::FloatCmp              0      0.00%     57.29% # Class of executed instruction
system.switch_cpus1.op_class::FloatCvt            832      0.00%     57.29% # Class of executed instruction
system.switch_cpus1.op_class::FloatMult             0      0.00%     57.29% # Class of executed instruction
system.switch_cpus1.op_class::FloatMultAcc            0      0.00%     57.29% # Class of executed instruction
system.switch_cpus1.op_class::FloatDiv              0      0.00%     57.29% # Class of executed instruction
system.switch_cpus1.op_class::FloatMisc             0      0.00%     57.29% # Class of executed instruction
system.switch_cpus1.op_class::FloatSqrt             0      0.00%     57.29% # Class of executed instruction
system.switch_cpus1.op_class::SimdAdd              72      0.00%     57.29% # Class of executed instruction
system.switch_cpus1.op_class::SimdAddAcc            0      0.00%     57.29% # Class of executed instruction
system.switch_cpus1.op_class::SimdAlu         1396963      0.86%     58.15% # Class of executed instruction
system.switch_cpus1.op_class::SimdCmp               0      0.00%     58.15% # Class of executed instruction
system.switch_cpus1.op_class::SimdCvt             144      0.00%     58.15% # Class of executed instruction
system.switch_cpus1.op_class::SimdMisc             72      0.00%     58.15% # Class of executed instruction
system.switch_cpus1.op_class::SimdMult              0      0.00%     58.15% # Class of executed instruction
system.switch_cpus1.op_class::SimdMultAcc            0      0.00%     58.15% # Class of executed instruction
system.switch_cpus1.op_class::SimdShift            38      0.00%     58.15% # Class of executed instruction
system.switch_cpus1.op_class::SimdShiftAcc            0      0.00%     58.15% # Class of executed instruction
system.switch_cpus1.op_class::SimdDiv               0      0.00%     58.15% # Class of executed instruction
system.switch_cpus1.op_class::SimdSqrt              0      0.00%     58.15% # Class of executed instruction
system.switch_cpus1.op_class::SimdFloatAdd     10890944      6.70%     64.85% # Class of executed instruction
system.switch_cpus1.op_class::SimdFloatAlu            0      0.00%     64.85% # Class of executed instruction
system.switch_cpus1.op_class::SimdFloatCmp            0      0.00%     64.85% # Class of executed instruction
system.switch_cpus1.op_class::SimdFloatCvt            0      0.00%     64.85% # Class of executed instruction
system.switch_cpus1.op_class::SimdFloatDiv        33728      0.02%     64.87% # Class of executed instruction
system.switch_cpus1.op_class::SimdFloatMisc            0      0.00%     64.87% # Class of executed instruction
system.switch_cpus1.op_class::SimdFloatMult     10890944      6.70%     71.57% # Class of executed instruction
system.switch_cpus1.op_class::SimdFloatMultAcc            0      0.00%     71.57% # Class of executed instruction
system.switch_cpus1.op_class::SimdFloatSqrt            0      0.00%     71.57% # Class of executed instruction
system.switch_cpus1.op_class::SimdReduceAdd            0      0.00%     71.57% # Class of executed instruction
system.switch_cpus1.op_class::SimdReduceAlu            0      0.00%     71.57% # Class of executed instruction
system.switch_cpus1.op_class::SimdReduceCmp            0      0.00%     71.57% # Class of executed instruction
system.switch_cpus1.op_class::SimdFloatReduceAdd            0      0.00%     71.57% # Class of executed instruction
system.switch_cpus1.op_class::SimdFloatReduceCmp            0      0.00%     71.57% # Class of executed instruction
system.switch_cpus1.op_class::SimdAes               0      0.00%     71.57% # Class of executed instruction
system.switch_cpus1.op_class::SimdAesMix            0      0.00%     71.57% # Class of executed instruction
system.switch_cpus1.op_class::SimdSha1Hash            0      0.00%     71.57% # Class of executed instruction
system.switch_cpus1.op_class::SimdSha1Hash2            0      0.00%     71.57% # Class of executed instruction
system.switch_cpus1.op_class::SimdSha256Hash            0      0.00%     71.57% # Class of executed instruction
system.switch_cpus1.op_class::SimdSha256Hash2            0      0.00%     71.57% # Class of executed instruction
system.switch_cpus1.op_class::SimdShaSigma2            0      0.00%     71.57% # Class of executed instruction
system.switch_cpus1.op_class::SimdShaSigma3            0      0.00%     71.57% # Class of executed instruction
system.switch_cpus1.op_class::SimdPredAlu            0      0.00%     71.57% # Class of executed instruction
system.switch_cpus1.op_class::MemRead        10036615      6.17%     77.74% # Class of executed instruction
system.switch_cpus1.op_class::MemWrite        2707402      1.67%     79.41% # Class of executed instruction
system.switch_cpus1.op_class::FloatMemRead     22543197     13.87%     93.28% # Class of executed instruction
system.switch_cpus1.op_class::FloatMemWrite     10926348      6.72%    100.00% # Class of executed instruction
system.switch_cpus1.op_class::IprAccess             0      0.00%    100.00% # Class of executed instruction
system.switch_cpus1.op_class::InstPrefetch            0      0.00%    100.00% # Class of executed instruction
system.switch_cpus1.op_class::total         162547942                       # Class of executed instruction
system.switch_cpus2.Branches                  9798346                       # Number of branches fetched
system.switch_cpus2.committedInsts           79975998                       # Number of instructions committed
system.switch_cpus2.committedOps            155262794                       # Number of ops (including micro ops) committed
system.switch_cpus2.dtb.rdAccesses           31103035                       # TLB accesses on read requests
system.switch_cpus2.dtb.rdMisses                19430                       # TLB misses on read requests
system.switch_cpus2.dtb.wrAccesses           13017053                       # TLB accesses on write requests
[...]
system.iobus.pkt_count_system.ruby.l1_cntrl1.sequencer.mem-master-port::total         3218                       # Packet count per connected master and slave (bytes)
system.iobus.pkt_count_system.ruby.l1_cntrl2.sequencer.mem-master-port::system.ruby.l1_cntrl0.sequencer.pio-slave-port           36                       # Packet count per connected master and slave (bytes)
system.iobus.pkt_count_system.ruby.l1_cntrl2.sequencer.mem-master-port::system.ruby.l1_cntrl1.sequencer.pio-slave-port           28                       # Packet count per connected master and slave (bytes)
system.iobus.pkt_count_system.ruby.l1_cntrl2.sequencer.mem-master-port::system.ruby.l1_cntrl2.sequencer.pio-slave-port         1788                       # Packet count per connected master and slave (bytes)
system.iobus.pkt_count_system.ruby.l1_cntrl2.sequencer.mem-master-port::system.ruby.l1_cntrl3.sequencer.pio-slave-port           32                       # Packet count per connected master and slave (bytes)
system.iobus.pkt_count_system.ruby.l1_cntrl2.sequencer.mem-master-port::total         1884                       # Packet count per connected master and slave (bytes)
system.iobus.pkt_count_system.ruby.l1_cntrl3.sequencer.mem-master-port::system.ruby.l1_cntrl0.sequencer.pio-slave-port           36                       # Packet count per connected master and slave (bytes)
system.iobus.pkt_count_system.ruby.l1_cntrl3.sequencer.mem-master-port::system.ruby.l1_cntrl1.sequencer.pio-slave-port           42                       # Packet count per connected master and slave (bytes)
system.iobus.pkt_count_system.ruby.l1_cntrl3.sequencer.mem-master-port::system.ruby.l1_cntrl2.sequencer.pio-slave-port           40                       # Packet count per connected master and slave (bytes)
system.iobus.pkt_count_system.ruby.l1_cntrl3.sequencer.mem-master-port::system.ruby.l1_cntrl3.sequencer.pio-slave-port         1856                       # Packet count per connected master and slave (bytes)
system.iobus.pkt_count_system.ruby.l1_cntrl3.sequencer.mem-master-port::total         1974                       # Packet count per connected master and slave (bytes)
system.iobus.pkt_count::total                    9350                       # Packet count per connected master and slave (bytes)
system.iobus.pkt_size_system.pc.south_bridge.io_apic.int_master::system.ruby.l1_cntrl1.sequencer.pio-slave-port          600                       # Cumulative packet size per connected master and slave (bytes)
system.iobus.pkt_size_system.pc.south_bridge.io_apic.int_master::total          600                       # Cumulative packet size per connected master and slave (bytes)
system.iobus.pkt_size_system.ruby.l1_cntrl0.sequencer.mem-master-port::system.ruby.l1_cntrl0.sequencer.pio-slave-port         3716                       # Cumulative packet size per connected master and slave (bytes)
system.iobus.pkt_size_system.ruby.l1_cntrl0.sequencer.mem-master-port::system.ruby.l1_cntrl1.sequencer.pio-slave-port           72                       # Cumulative packet size per connected master and slave (bytes)
system.iobus.pkt_size_system.ruby.l1_cntrl0.sequencer.mem-master-port::system.ruby.l1_cntrl2.sequencer.pio-slave-port           80                       # Cumulative packet size per connected master and slave (bytes)
system.iobus.pkt_size_system.ruby.l1_cntrl0.sequencer.mem-master-port::system.ruby.l1_cntrl3.sequencer.pio-slave-port           80                       # Cumulative packet size per connected master and slave (bytes)
system.iobus.pkt_size_system.ruby.l1_cntrl0.sequencer.mem-master-port::total         3948                       # Cumulative packet size per connected master and slave (bytes)
system.iobus.pkt_size_system.ruby.l1_cntrl1.sequencer.mem-master-port::system.pc.com_1.pio          608                       # Cumulative packet size per connected master and slave (bytes)
system.iobus.pkt_size_system.ruby.l1_cntrl1.sequencer.mem-master-port::system.ruby.l1_cntrl0.sequencer.pio-slave-port           72                       # Cumulative packet size per connected master and slave (bytes)
system.iobus.pkt_size_system.ruby.l1_cntrl1.sequencer.mem-master-port::system.ruby.l1_cntrl1.sequencer.pio-slave-port         3784                       # Cumulative packet size per connected master and slave (bytes)
system.iobus.pkt_size_system.ruby.l1_cntrl1.sequencer.mem-master-port::system.ruby.l1_cntrl2.sequencer.pio-slave-port           80                       # Cumulative packet size per connected master and slave (bytes)
system.iobus.pkt_size_system.ruby.l1_cntrl1.sequencer.mem-master-port::system.ruby.l1_cntrl3.sequencer.pio-slave-port           68                       # Cumulative packet size per connected master and slave (bytes)
system.iobus.pkt_size_system.ruby.l1_cntrl1.sequencer.mem-master-port::total         4612                       # Cumulative packet size per connected master and slave (bytes)
system.iobus.pkt_size_system.ruby.l1_cntrl2.sequencer.mem-master-port::system.ruby.l1_cntrl0.sequencer.pio-slave-port           72                       # Cumulative packet size per connected master and slave (bytes)
system.iobus.pkt_size_system.ruby.l1_cntrl2.sequencer.mem-master-port::system.ruby.l1_cntrl1.sequencer.pio-slave-port           56                       # Cumulative packet size per connected master and slave (bytes)
system.iobus.pkt_size_system.ruby.l1_cntrl2.sequencer.mem-master-port::system.ruby.l1_cntrl2.sequencer.pio-slave-port         3576                       # Cumulative packet size per connected master and slave (bytes)
system.iobus.pkt_size_system.ruby.l1_cntrl2.sequencer.mem-master-port::system.ruby.l1_cntrl3.sequencer.pio-slave-port           64                       # Cumulative packet size per connected master and slave (bytes)
system.iobus.pkt_size_system.ruby.l1_cntrl2.sequencer.mem-master-port::total         3768                       # Cumulative packet size per connected master and slave (bytes)
system.iobus.pkt_size_system.ruby.l1_cntrl3.sequencer.mem-master-port::system.ruby.l1_cntrl0.sequencer.pio-slave-port           72                       # Cumulative packet size per connected master and slave (bytes)
system.iobus.pkt_size_system.ruby.l1_cntrl3.sequencer.mem-master-port::system.ruby.l1_cntrl1.sequencer.pio-slave-port           84                       # Cumulative packet size per connected master and slave (bytes)
system.iobus.pkt_size_system.ruby.l1_cntrl3.sequencer.mem-master-port::system.ruby.l1_cntrl2.sequencer.pio-slave-port           80                       # Cumulative packet size per connected master and slave (bytes)
system.iobus.pkt_size_system.ruby.l1_cntrl3.sequencer.mem-master-port::system.ruby.l1_cntrl3.sequencer.pio-slave-port         3712                       # Cumulative packet size per connected master and slave (bytes)
system.iobus.pkt_size_system.ruby.l1_cntrl3.sequencer.mem-master-port::total         3948                       # Cumulative packet size per connected master and slave (bytes)
system.iobus.pkt_size::total                    16876                       # Cumulative packet size per connected master and slave (bytes)
system.iobus.power_state.pwrStateResidencyTicks::UNDEFINED 97369514391501                       # Cumulative time (in ticks) in various power states
system.iobus.reqLayer19.occupancy             2523787                       # Layer occupancy (ticks)
system.iobus.reqLayer19.utilization               0.0                       # Layer utilization (%)
system.iobus.reqLayer17.occupancy             2612739                       # Layer occupancy (ticks)
system.iobus.reqLayer17.utilization               0.0                       # Layer utilization (%)
system.iobus.reqLayer12.occupancy              919500                       # Layer occupancy (ticks)
system.iobus.reqLayer12.utilization               0.0                       # Layer utilization (%)
system.iobus.reqLayer18.occupancy             2943771                       # Layer occupancy (ticks)
system.iobus.reqLayer18.utilization               0.0                       # Layer utilization (%)
system.iobus.respLayer9.occupancy             1516500                       # Layer occupancy (ticks)
system.iobus.respLayer9.utilization               0.0                       # Layer utilization (%)
system.iobus.respLayer5.occupancy             2579000                       # Layer occupancy (ticks)
system.iobus.respLayer5.utilization               0.0                       # Layer utilization (%)
system.iobus.respLayer7.occupancy             1437499                       # Layer occupancy (ticks)
system.iobus.respLayer7.utilization               0.0                       # Layer utilization (%)
system.iobus.respLayer0.occupancy              216000                       # Layer occupancy (ticks)
system.iobus.respLayer0.utilization               0.0                       # Layer utilization (%)
system.iobus.respLayer3.occupancy             1517500                       # Layer occupancy (ticks)
system.iobus.respLayer3.utilization               0.0                       # Layer utilization (%)
system.iobus.reqLayer20.occupancy             2608734                       # Layer occupancy (ticks)
system.iobus.reqLayer20.utilization               0.0                       # Layer utilization (%)

---------- End Simulation Statistics   ----------
.iobus.pkt_count_system.ruby.l1_cntrl1.sequencer.mem-master-port::system.ruby.l1_cntrl1.sequencer.pio-slave-port          880                       # Packet count per connected master and slave (bytes)
system.iobus.pkt_count_system.ruby.l1_cntrl1.sequencer.mem-master-port::system.ruby.l1_cntrl2.sequencer.pio-slave-port           44                       # Packet count per connected master and slave (bytes)
system.iobus.pkt_count_system.ruby.l1_cntrl1.sequencer.mem-master-port::system.ruby.l1_cntrl3.sequencer.pio-slave-port           44                       # Packet count per connected master and slave (bytes)
system.iobus.pkt_count_system.ruby.l1_cntrl1.sequencer.mem-master-port::total         2076                       # Packet count per connected master and slave (bytes)
system.iobus.pkt_count_system.ruby.l1_cntrl2.sequencer.mem-master-port::system.ruby.l1_cntrl0.sequencer.pio-slave-port           24                       # Packet count per connected master and slave (bytes)
system.iobus.pkt_count_system.ruby.l1_cntrl2.sequencer.mem-master-port::system.ruby.l1_cntrl1.sequencer.pio-slave-port           22                       # Packet count per connected master and slave (bytes)
system.iobus.pkt_count_system.ruby.l1_cntrl2.sequencer.mem-master-port::system.ruby.l1_cntrl2.sequencer.pio-slave-port          738                       # Packet count per connected master and slave (bytes)
system.iobus.pkt_count_system.ruby.l1_cntrl2.sequencer.mem-master-port::system.ruby.l1_cntrl3.sequencer.pio-slave-port           24                       # Packet count per connected master and slave (bytes)
system.iobus.pkt_count_system.ruby.l1_cntrl2.sequencer.mem-master-port::total          808                       # Packet count per connected master and slave (bytes)
system.iobus.pkt_count_system.ruby.l1_cntrl3.sequencer.mem-master-port::system.pc.com_1.pio            2                       # Packet count per connected master and slave (bytes)
system.iobus.pkt_count_system.ruby.l1_cntrl3.sequencer.mem-master-port::system.ruby.l1_cntrl0.sequencer.pio-slave-port           40                       # Packet count per connected master and slave (bytes)
system.iobus.pkt_count_system.ruby.l1_cntrl3.sequencer.mem-master-port::system.ruby.l1_cntrl1.sequencer.pio-slave-port           40                       # Packet count per connected master and slave (bytes)
system.iobus.pkt_count_system.ruby.l1_cntrl3.sequencer.mem-master-port::system.ruby.l1_cntrl2.sequencer.pio-slave-port           42                       # Packet count per connected master and slave (bytes)
system.iobus.pkt_count_system.ruby.l1_cntrl3.sequencer.mem-master-port::system.ruby.l1_cntrl3.sequencer.pio-slave-port          872                       # Packet count per connected master and slave (bytes)
system.iobus.pkt_count_system.ruby.l1_cntrl3.sequencer.mem-master-port::total          996                       # Packet count per connected master and slave (bytes)
system.iobus.pkt_count::total                    5094                       # Packet count per connected master and slave (bytes)
system.iobus.pkt_size_system.pc.south_bridge.io_apic.int_master::system.ruby.l1_cntrl1.sequencer.pio-slave-port          536                       # Cumulative packet size per connected master and slave (bytes)
system.iobus.pkt_size_system.pc.south_bridge.io_apic.int_master::total          536                       # Cumulative packet size per connected master and slave (bytes)
system.iobus.pkt_size_system.ruby.l1_cntrl0.sequencer.mem-master-port::system.ruby.l1_cntrl0.sequencer.pio-slave-port         1676                       # Cumulative packet size per connected master and slave (bytes)
system.iobus.pkt_size_system.ruby.l1_cntrl0.sequencer.mem-master-port::system.ruby.l1_cntrl1.sequencer.pio-slave-port           72                       # Cumulative packet size per connected master and slave (bytes)
system.iobus.pkt_size_system.ruby.l1_cntrl0.sequencer.mem-master-port::system.ruby.l1_cntrl2.sequencer.pio-slave-port           72                       # Cumulative packet size per connected master and slave (bytes)
system.iobus.pkt_size_system.ruby.l1_cntrl0.sequencer.mem-master-port::system.ruby.l1_cntrl3.sequencer.pio-slave-port           72                       # Cumulative packet size per connected master and slave (bytes)
system.iobus.pkt_size_system.ruby.l1_cntrl0.sequencer.mem-master-port::total         1892                       # Cumulative packet size per connected master and slave (bytes)
system.iobus.pkt_size_system.ruby.l1_cntrl1.sequencer.mem-master-port::system.pc.com_1.pio          535                       # Cumulative packet size per connected master and slave (bytes)
system.iobus.pkt_size_system.ruby.l1_cntrl1.sequencer.mem-master-port::system.ruby.l1_cntrl0.sequencer.pio-slave-port           76                       # Cumulative packet size per connected master and slave (bytes)
system.iobus.pkt_size_system.ruby.l1_cntrl1.sequencer.mem-master-port::system.ruby.l1_cntrl1.sequencer.pio-slave-port         1760                       # Cumulative packet size per connected master and slave (bytes)
system.iobus.pkt_size_system.ruby.l1_cntrl1.sequencer.mem-master-port::system.ruby.l1_cntrl2.sequencer.pio-slave-port           88                       # Cumulative packet size per connected master and slave (bytes)
system.iobus.pkt_size_system.ruby.l1_cntrl1.sequencer.mem-master-port::system.ruby.l1_cntrl3.sequencer.pio-slave-port           88                       # Cumulative packet size per connected master and slave (bytes)
system.iobus.pkt_size_system.ruby.l1_cntrl1.sequencer.mem-master-port::total         2547                       # Cumulative packet size per connected master and slave (bytes)
system.iobus.pkt_size_system.ruby.l1_cntrl2.sequencer.mem-master-port::system.ruby.l1_cntrl0.sequencer.pio-slave-port           48                       # Cumulative packet size per connected master and slave (bytes)
system.iobus.pkt_size_system.ruby.l1_cntrl2.sequencer.mem-master-port::system.ruby.l1_cntrl1.sequencer.pio-slave-port           44                       # Cumulative packet size per connected master and slave (bytes)
system.iobus.pkt_size_system.ruby.l1_cntrl2.sequencer.mem-master-port::system.ruby.l1_cntrl2.sequencer.pio-slave-port         1476                       # Cumulative packet size per connected master and slave (bytes)
system.iobus.pkt_size_system.ruby.l1_cntrl2.sequencer.mem-master-port::system.ruby.l1_cntrl3.sequencer.pio-slave-port           48                       # Cumulative packet size per connected master and slave (bytes)
system.iobus.pkt_size_system.ruby.l1_cntrl2.sequencer.mem-master-port::total         1616                       # Cumulative packet size per connected master and slave (bytes)
system.iobus.pkt_size_system.ruby.l1_cntrl3.sequencer.mem-master-port::system.pc.com_1.pio            1                       # Cumulative packet size per connected master and slave (bytes)
system.iobus.pkt_size_system.ruby.l1_cntrl3.sequencer.mem-master-port::system.ruby.l1_cntrl0.sequencer.pio-slave-port           80                       # Cumulative packet size per connected master and slave (bytes)
system.iobus.pkt_size_system.ruby.l1_cntrl3.sequencer.mem-master-port::system.ruby.l1_cntrl1.sequencer.pio-slave-port           80                       # Cumulative packet size per connected master and slave (bytes)
system.iobus.pkt_size_system.ruby.l1_cntrl3.sequencer.mem-master-port::system.ruby.l1_cntrl2.sequencer.pio-slave-port           84                       # Cumulative packet size per connected master and slave (bytes)
system.iobus.pkt_size_system.ruby.l1_cntrl3.sequencer.mem-master-port::system.ruby.l1_cntrl3.sequencer.pio-slave-port         1744                       # Cumulative packet size per connected master and slave (bytes)
system.iobus.pkt_size_system.ruby.l1_cntrl3.sequencer.mem-master-port::total         1989                       # Cumulative packet size per connected master and slave (bytes)
system.iobus.pkt_size::total                     8580                       # Cumulative packet size per connected master and slave (bytes)
system.iobus.power_state.pwrStateResidencyTicks::UNDEFINED 98181308341501                       # Cumulative time (in ticks) in various power states
system.iobus.reqLayer19.occupancy             1116252                       # Layer occupancy (ticks)
system.iobus.reqLayer19.utilization               0.0                       # Layer utilization (%)
system.iobus.reqLayer17.occupancy             1212228                       # Layer occupancy (ticks)
system.iobus.reqLayer17.utilization               0.0                       # Layer utilization (%)
system.iobus.reqLayer12.occupancy              692000                       # Layer occupancy (ticks)
system.iobus.reqLayer12.utilization               0.0                       # Layer utilization (%)
system.iobus.reqLayer18.occupancy             1507730                       # Layer occupancy (ticks)
system.iobus.reqLayer18.utilization               0.0                       # Layer utilization (%)
system.iobus.respLayer9.occupancy              782500                       # Layer occupancy (ticks)
system.iobus.respLayer9.utilization               0.0                       # Layer utilization (%)
system.iobus.respLayer5.occupancy             1726500                       # Layer occupancy (ticks)
system.iobus.respLayer5.utilization               0.0                       # Layer utilization (%)
system.iobus.respLayer7.occupancy              623500                       # Layer occupancy (ticks)
system.iobus.respLayer7.utilization               0.0                       # Layer utilization (%)
system.iobus.respLayer0.occupancy              196500                       # Layer occupancy (ticks)
system.iobus.respLayer0.utilization               0.0                       # Layer utilization (%)
system.iobus.respLayer3.occupancy              746500                       # Layer occupancy (ticks)
system.iobus.respLayer3.utilization               0.0                       # Layer utilization (%)
system.iobus.reqLayer20.occupancy             1232234                       # Layer occupancy (ticks)
system.iobus.reqLayer20.utilization               0.0                       # Layer utilization (%)

---------- End Simulation Statistics   ----------
