
---------- Begin Simulation Statistics ----------
final_tick                               1086363911000                       # Number of ticks from beginning of simulation (restored from checkpoints and never reset)
host_inst_rate                                 328614                       # Simulator instruction rate (inst/s)
host_mem_usage                                1229228                       # Number of bytes of host memory used
host_op_rate                                   529798                       # Simulator op (including micro ops) rate (op/s)
host_seconds                                  2770.15                       # Real time elapsed on the host
host_tick_rate                              392168070                       # Simulator tick rate (ticks/s)
sim_freq                                 1000000000000                       # Frequency of simulated ticks
sim_insts                                   910308976                       # Number of instructions simulated
sim_ops                                    1467619281                       # Number of ops (including micro ops) simulated
sim_seconds                                  1.086364                       # Number of seconds simulated
sim_ticks                                1086363911000                       # Number of ticks simulated
system.cpu0.Branches                         51700878                       # Number of branches fetched
system.cpu0.committedInsts                  521645756                       # Number of instructions committed
system.cpu0.committedOps                    891170084                       # Number of ops (including micro ops) committed
system.cpu0.dtb.rdAccesses                  122669127                       # TLB accesses on read requests
system.cpu0.dtb.rdMisses                        24002                       # TLB misses on read requests
system.cpu0.dtb.wrAccesses                   64029612                       # TLB accesses on write requests
system.cpu0.dtb.wrMisses                       803945                       # TLB misses on write requests
system.cpu0.idle_fraction                    0.000677                       # Percentage of idle cycles
system.cpu0.itb.rdAccesses                          0                       # TLB accesses on read requests
system.cpu0.itb.rdMisses                            0                       # TLB misses on read requests
system.cpu0.itb.wrAccesses                  752689722                       # TLB accesses on write requests
system.cpu0.itb.wrMisses                          364                       # TLB misses on write requests
system.cpu0.not_idle_fraction                0.999323                       # Percentage of non-idle cycles
system.cpu0.numCycles                      2172727822                       # number of cpu cycles simulated
system.cpu0.numWorkItemsCompleted                   0                       # number of work items this cpu completed
system.cpu0.numWorkItemsStarted                     0                       # number of work items this cpu started
system.cpu0.num_busy_cycles              2171257552.998001                       # Number of busy cycles
system.cpu0.num_cc_register_reads           230075975                       # number of times the CC registers were read
system.cpu0.num_cc_register_writes          228321340                       # number of times the CC registers were written
system.cpu0.num_conditional_control_insts     30662399                       # number of instructions that are conditional controls
system.cpu0.num_fp_alu_accesses             363580203                       # Number of float alu accesses
system.cpu0.num_fp_insts                    363580203                       # number of float instructions
system.cpu0.num_fp_register_reads           555158094                       # number of times the floating registers were read
system.cpu0.num_fp_register_writes          323562131                       # number of times the floating registers were written
system.cpu0.num_func_calls                   14691083                       # number of times a function call or return occured
system.cpu0.num_idle_cycles              1470269.001999                       # Number of idle cycles
system.cpu0.num_int_alu_accesses            631033263                       # Number of integer alu accesses
system.cpu0.num_int_insts                   631033263                       # number of integer instructions
system.cpu0.num_int_register_reads         1299747426                       # number of times the integer registers were read
system.cpu0.num_int_register_writes         449326329                       # number of times the integer registers were written
system.cpu0.num_load_insts                  122669090                       # Number of load instructions
system.cpu0.num_mem_refs                    186698690                       # number of memory refs
system.cpu0.num_store_insts                  64029600                       # Number of store instructions
system.cpu0.num_vec_alu_accesses                    0                       # Number of vector alu accesses
system.cpu0.num_vec_insts                           0                       # number of vector instructions
system.cpu0.num_vec_register_reads                  0                       # number of times the vector registers were read
system.cpu0.num_vec_register_writes                 0                       # number of times the vector registers were written
system.cpu0.op_class::No_OpClass                92363      0.01%      0.01% # Class of executed instruction
system.cpu0.op_class::IntAlu                521801453     58.55%     58.56% # Class of executed instruction
system.cpu0.op_class::IntMult                 2098409      0.24%     58.80% # Class of executed instruction
system.cpu0.op_class::IntDiv                    38272      0.00%     58.80% # Class of executed instruction
system.cpu0.op_class::FloatAdd               48610963      5.45%     64.26% # Class of executed instruction
system.cpu0.op_class::FloatCmp                      0      0.00%     64.26% # Class of executed instruction
system.cpu0.op_class::FloatCvt                    192      0.00%     64.26% # Class of executed instruction
system.cpu0.op_class::FloatMult                     0      0.00%     64.26% # Class of executed instruction
system.cpu0.op_class::FloatMultAcc                  0      0.00%     64.26% # Class of executed instruction
system.cpu0.op_class::FloatDiv                      0      0.00%     64.26% # Class of executed instruction
system.cpu0.op_class::FloatMisc                     0      0.00%     64.26% # Class of executed instruction
system.cpu0.op_class::FloatSqrt                     0      0.00%     64.26% # Class of executed instruction
system.cpu0.op_class::SimdAdd                    2134      0.00%     64.26% # Class of executed instruction
system.cpu0.op_class::SimdAddAcc                    0      0.00%     64.26% # Class of executed instruction
system.cpu0.op_class::SimdAlu                25886069      2.90%     67.16% # Class of executed instruction
system.cpu0.op_class::SimdCmp                      20      0.00%     67.16% # Class of executed instruction
system.cpu0.op_class::SimdCvt                    4206      0.00%     67.16% # Class of executed instruction
system.cpu0.op_class::SimdMisc                4439212      0.50%     67.66% # Class of executed instruction
system.cpu0.op_class::SimdMult                      0      0.00%     67.66% # Class of executed instruction
system.cpu0.op_class::SimdMultAcc                   0      0.00%     67.66% # Class of executed instruction
system.cpu0.op_class::SimdShift                   952      0.00%     67.66% # Class of executed instruction
system.cpu0.op_class::SimdShiftAcc                  0      0.00%     67.66% # Class of executed instruction
system.cpu0.op_class::SimdDiv                       0      0.00%     67.66% # Class of executed instruction
system.cpu0.op_class::SimdSqrt                      0      0.00%     67.66% # Class of executed instruction
system.cpu0.op_class::SimdFloatAdd           55288068      6.20%     73.86% # Class of executed instruction
system.cpu0.op_class::SimdFloatAlu                  0      0.00%     73.86% # Class of executed instruction
system.cpu0.op_class::SimdFloatCmp                  0      0.00%     73.86% # Class of executed instruction
system.cpu0.op_class::SimdFloatCvt            5699110      0.64%     74.50% # Class of executed instruction
system.cpu0.op_class::SimdFloatDiv            1049602      0.12%     74.62% # Class of executed instruction
system.cpu0.op_class::SimdFloatMisc                 0      0.00%     74.62% # Class of executed instruction
system.cpu0.op_class::SimdFloatMult          39484018      4.43%     79.05% # Class of executed instruction
system.cpu0.op_class::SimdFloatMultAcc              0      0.00%     79.05% # Class of executed instruction
system.cpu0.op_class::SimdFloatSqrt                 0      0.00%     79.05% # Class of executed instruction
system.cpu0.op_class::SimdReduceAdd                 0      0.00%     79.05% # Class of executed instruction
system.cpu0.op_class::SimdReduceAlu                 0      0.00%     79.05% # Class of executed instruction
system.cpu0.op_class::SimdReduceCmp                 0      0.00%     79.05% # Class of executed instruction
system.cpu0.op_class::SimdFloatReduceAdd            0      0.00%     79.05% # Class of executed instruction
system.cpu0.op_class::SimdFloatReduceCmp            0      0.00%     79.05% # Class of executed instruction
system.cpu0.op_class::SimdAes                       0      0.00%     79.05% # Class of executed instruction
system.cpu0.op_class::SimdAesMix                    0      0.00%     79.05% # Class of executed instruction
system.cpu0.op_class::SimdSha1Hash                  0      0.00%     79.05% # Class of executed instruction
system.cpu0.op_class::SimdSha1Hash2                 0      0.00%     79.05% # Class of executed instruction
system.cpu0.op_class::SimdSha256Hash                0      0.00%     79.05% # Class of executed instruction
system.cpu0.op_class::SimdSha256Hash2               0      0.00%     79.05% # Class of executed instruction
system.cpu0.op_class::SimdShaSigma2                 0      0.00%     79.05% # Class of executed instruction
system.cpu0.op_class::SimdShaSigma3                 0      0.00%     79.05% # Class of executed instruction
system.cpu0.op_class::SimdPredAlu                   0      0.00%     79.05% # Class of executed instruction
system.cpu0.op_class::MemRead                55574508      6.24%     85.29% # Class of executed instruction
system.cpu0.op_class::MemWrite               32049112      3.60%     88.88% # Class of executed instruction
system.cpu0.op_class::FloatMemRead           67094582      7.53%     96.41% # Class of executed instruction
system.cpu0.op_class::FloatMemWrite          31980488      3.59%    100.00% # Class of executed instruction
system.cpu0.op_class::IprAccess                     0      0.00%    100.00% # Class of executed instruction
system.cpu0.op_class::InstPrefetch                  0      0.00%    100.00% # Class of executed instruction
system.cpu0.op_class::total                 891193733                       # Class of executed instruction
system.cpu0.workload.numSyscalls                  130                       # Number of system calls
system.cpu1.Branches                          7988642                       # Number of branches fetched
system.cpu1.committedInsts                  129555515                       # Number of instructions committed
system.cpu1.committedOps                    192151230                       # Number of ops (including micro ops) committed
system.cpu1.dtb.rdAccesses                   22686567                       # TLB accesses on read requests
system.cpu1.dtb.rdMisses                         9368                       # TLB misses on read requests
system.cpu1.dtb.wrAccesses                   14155307                       # TLB accesses on write requests
system.cpu1.dtb.wrMisses                       787471                       # TLB misses on write requests
system.cpu1.idle_fraction                    0.707226                       # Percentage of idle cycles
system.cpu1.itb.rdAccesses                          0                       # TLB accesses on read requests
system.cpu1.itb.rdMisses                            0                       # TLB misses on read requests
system.cpu1.itb.wrAccesses                  197017614                       # TLB accesses on write requests
system.cpu1.itb.wrMisses                           85                       # TLB misses on write requests
system.cpu1.not_idle_fraction                0.292774                       # Percentage of non-idle cycles
system.cpu1.numCycles                      2172586362                       # number of cpu cycles simulated
system.cpu1.numWorkItemsCompleted                   0                       # number of work items this cpu completed
system.cpu1.numWorkItemsStarted                     0                       # number of work items this cpu started
system.cpu1.num_busy_cycles              636077648.134122                       # Number of busy cycles
system.cpu1.num_cc_register_reads            53121409                       # number of times the CC registers were read
system.cpu1.num_cc_register_writes           58929947                       # number of times the CC registers were written
system.cpu1.num_conditional_control_insts      7528118                       # number of instructions that are conditional controls
system.cpu1.num_fp_alu_accesses             102146078                       # Number of float alu accesses
system.cpu1.num_fp_insts                    102146078                       # number of float instructions
system.cpu1.num_fp_register_reads           141009108                       # number of times the floating registers were read
system.cpu1.num_fp_register_writes           88543626                       # number of times the floating registers were written
system.cpu1.num_func_calls                       1531                       # number of times a function call or return occured
system.cpu1.num_idle_cycles              1536508713.865878                       # Number of idle cycles
system.cpu1.num_int_alu_accesses            122899802                       # Number of integer alu accesses
system.cpu1.num_int_insts                   122899802                       # number of integer instructions
system.cpu1.num_int_register_reads          259019700                       # number of times the integer registers were read
system.cpu1.num_int_register_writes          81464836                       # number of times the integer registers were written
system.cpu1.num_load_insts                   22686564                       # Number of load instructions
system.cpu1.num_mem_refs                     36841871                       # number of memory refs
system.cpu1.num_store_insts                  14155307                       # Number of store instructions
system.cpu1.num_vec_alu_accesses                    0                       # Number of vector alu accesses
system.cpu1.num_vec_insts                           0                       # number of vector instructions
system.cpu1.num_vec_register_reads                  0                       # number of times the vector registers were read
system.cpu1.num_vec_register_writes                 0                       # number of times the vector registers were written
system.cpu1.op_class::No_OpClass                76865      0.04%      0.04% # Class of executed instruction
system.cpu1.op_class::IntAlu                108042623     56.23%     56.27% # Class of executed instruction
system.cpu1.op_class::IntMult                      65      0.00%     56.27% # Class of executed instruction
system.cpu1.op_class::IntDiv                    36016      0.02%     56.29% # Class of executed instruction
system.cpu1.op_class::FloatAdd               19365950     10.08%     66.36% # Class of executed instruction
system.cpu1.op_class::FloatCmp                      0      0.00%     66.36% # Class of executed instruction
system.cpu1.op_class::FloatCvt                     80      0.00%     66.36% # Class of executed instruction
system.cpu1.op_class::FloatMult                     0      0.00%     66.36% # Class of executed instruction
system.cpu1.op_class::FloatMultAcc                  0      0.00%     66.36% # Class of executed instruction
system.cpu1.op_class::FloatDiv                      0      0.00%     66.36% # Class of executed instruction
system.cpu1.op_class::FloatMisc                     0      0.00%     66.36% # Class of executed instruction
system.cpu1.op_class::FloatSqrt                     0      0.00%     66.36% # Class of executed instruction
system.cpu1.op_class::SimdAdd                     470      0.00%     66.37% # Class of executed instruction
system.cpu1.op_class::SimdAddAcc                    0      0.00%     66.37% # Class of executed instruction
system.cpu1.op_class::SimdAlu                     186      0.00%     66.37% # Class of executed instruction
system.cpu1.op_class::SimdCmp                       0      0.00%     66.37% # Class of executed instruction
system.cpu1.op_class::SimdCvt                     324      0.00%     66.37% # Class of executed instruction
system.cpu1.op_class::SimdMisc                    310      0.00%     66.37% # Class of executed instruction
system.cpu1.op_class::SimdMult                      0      0.00%     66.37% # Class of executed instruction
system.cpu1.op_class::SimdMultAcc                   0      0.00%     66.37% # Class of executed instruction
system.cpu1.op_class::SimdShift                   236      0.00%     66.37% # Class of executed instruction
system.cpu1.op_class::SimdShiftAcc                  0      0.00%     66.37% # Class of executed instruction
system.cpu1.op_class::SimdDiv                       0      0.00%     66.37% # Class of executed instruction
system.cpu1.op_class::SimdSqrt                      0      0.00%     66.37% # Class of executed instruction
system.cpu1.op_class::SimdFloatAdd           16252928      8.46%     74.82% # Class of executed instruction
system.cpu1.op_class::SimdFloatAlu                  0      0.00%     74.82% # Class of executed instruction
system.cpu1.op_class::SimdFloatCmp                  0      0.00%     74.82% # Class of executed instruction
system.cpu1.op_class::SimdFloatCvt                  0      0.00%     74.82% # Class of executed instruction
system.cpu1.op_class::SimdFloatDiv                  0      0.00%     74.82% # Class of executed instruction
system.cpu1.op_class::SimdFloatMisc                 0      0.00%     74.82% # Class of executed instruction
system.cpu1.op_class::SimdFloatMult          11534336      6.00%     80.83% # Class of executed instruction
system.cpu1.op_class::SimdFloatMultAcc              0      0.00%     80.83% # Class of executed instruction
system.cpu1.op_class::SimdFloatSqrt                 0      0.00%     80.83% # Class of executed instruction
system.cpu1.op_class::SimdReduceAdd                 0      0.00%     80.83% # Class of executed instruction
system.cpu1.op_class::SimdReduceAlu                 0      0.00%     80.83% # Class of executed instruction
system.cpu1.op_class::SimdReduceCmp                 0      0.00%     80.83% # Class of executed instruction
system.cpu1.op_class::SimdFloatReduceAdd            0      0.00%     80.83% # Class of executed instruction
system.cpu1.op_class::SimdFloatReduceCmp            0      0.00%     80.83% # Class of executed instruction
system.cpu1.op_class::SimdAes                       0      0.00%     80.83% # Class of executed instruction
system.cpu1.op_class::SimdAesMix                    0      0.00%     80.83% # Class of executed instruction
system.cpu1.op_class::SimdSha1Hash                  0      0.00%     80.83% # Class of executed instruction
system.cpu1.op_class::SimdSha1Hash2                 0      0.00%     80.83% # Class of executed instruction
system.cpu1.op_class::SimdSha256Hash                0      0.00%     80.83% # Class of executed instruction
system.cpu1.op_class::SimdSha256Hash2               0      0.00%     80.83% # Class of executed instruction
system.cpu1.op_class::SimdShaSigma2                 0      0.00%     80.83% # Class of executed instruction
system.cpu1.op_class::SimdShaSigma3                 0      0.00%     80.83% # Class of executed instruction
system.cpu1.op_class::SimdPredAlu                   0      0.00%     80.83% # Class of executed instruction
system.cpu1.op_class::MemRead                 3318191      1.73%     82.55% # Class of executed instruction
system.cpu1.op_class::MemWrite                 553065      0.29%     82.84% # Class of executed instruction
system.cpu1.op_class::FloatMemRead           19368373     10.08%     92.92% # Class of executed instruction
system.cpu1.op_class::FloatMemWrite          13602242      7.08%    100.00% # Class of executed instruction
system.cpu1.op_class::IprAccess                     0      0.00%    100.00% # Class of executed instruction
system.cpu1.op_class::InstPrefetch                  0      0.00%    100.00% # Class of executed instruction
system.cpu1.op_class::total                 192152260                       # Class of executed instruction
system.cpu2.Branches                          7988536                       # Number of branches fetched
system.cpu2.committedInsts                  129554014                       # Number of instructions committed
system.cpu2.committedOps                    192148861                       # Number of ops (including micro ops) committed
system.cpu2.dtb.rdAccesses                   22686275                       # TLB accesses on read requests
system.cpu2.dtb.rdMisses                         9364                       # TLB misses on read requests
system.cpu2.dtb.wrAccesses                   14155204                       # TLB accesses on write requests
system.cpu2.dtb.wrMisses                       787472                       # TLB misses on write requests
system.cpu2.idle_fraction                    0.707929                       # Percentage of idle cycles
system.cpu2.itb.rdAccesses                          0                       # TLB accesses on read requests
system.cpu2.itb.rdMisses                            0                       # TLB misses on read requests
system.cpu2.itb.wrAccesses                  197039704                       # TLB accesses on write requests
system.cpu2.itb.wrMisses                           83                       # TLB misses on write requests
system.cpu2.not_idle_fraction                0.292071                       # Percentage of non-idle cycles
system.cpu2.numCycles                      2172586308                       # number of cpu cycles simulated
system.cpu2.numWorkItemsCompleted                   0                       # number of work items this cpu completed
system.cpu2.numWorkItemsStarted                     0                       # number of work items this cpu started
system.cpu2.num_busy_cycles              634548953.896599                       # Number of busy cycles
system.cpu2.num_cc_register_reads            53120317                       # number of times the CC registers were read
system.cpu2.num_cc_register_writes           58927900                       # number of times the CC registers were written
system.cpu2.num_conditional_control_insts      7528014                       # number of instructions that are conditional controls
system.cpu2.num_fp_alu_accesses             102145841                       # Number of float alu accesses
system.cpu2.num_fp_insts                    102145841                       # number of float instructions
system.cpu2.num_fp_register_reads           141008816                       # number of times the floating registers were read
system.cpu2.num_fp_register_writes           88543459                       # number of times the floating registers were written
system.cpu2.num_func_calls                       1535                       # number of times a function call or return occured
system.cpu2.num_idle_cycles              1538037354.103401                       # Number of idle cycles
system.cpu2.num_int_alu_accesses            122897535                       # Number of integer alu accesses
system.cpu2.num_int_insts                   122897535                       # number of integer instructions
system.cpu2.num_int_register_reads          259014944                       # number of times the integer registers were read
system.cpu2.num_int_register_writes          81462807                       # number of times the integer registers were written
system.cpu2.num_load_insts                   22686272                       # Number of load instructions
system.cpu2.num_mem_refs                     36841476                       # number of memory refs
system.cpu2.num_store_insts                  14155204                       # Number of store instructions
system.cpu2.num_vec_alu_accesses                    0                       # Number of vector alu accesses
system.cpu2.num_vec_insts                           0                       # number of vector instructions
system.cpu2.num_vec_register_reads                  0                       # number of times the vector registers were read
system.cpu2.num_vec_register_writes                 0                       # number of times the vector registers were written
system.cpu2.op_class::No_OpClass                76833      0.04%      0.04% # Class of executed instruction
system.cpu2.op_class::IntAlu                108040826     56.23%     56.27% # Class of executed instruction
system.cpu2.op_class::IntMult                      62      0.00%     56.27% # Class of executed instruction
system.cpu2.op_class::IntDiv                    36001      0.02%     56.29% # Class of executed instruction
system.cpu2.op_class::FloatAdd               19365939     10.08%     66.36% # Class of executed instruction
system.cpu2.op_class::FloatCmp                      0      0.00%     66.36% # Class of executed instruction
system.cpu2.op_class::FloatCvt                     64      0.00%     66.36% # Class of executed instruction
system.cpu2.op_class::FloatMult                     0      0.00%     66.36% # Class of executed instruction
system.cpu2.op_class::FloatMultAcc                  0      0.00%     66.36% # Class of executed instruction
system.cpu2.op_class::FloatDiv                      0      0.00%     66.36% # Class of executed instruction
system.cpu2.op_class::FloatMisc                     0      0.00%     66.36% # Class of executed instruction
system.cpu2.op_class::FloatSqrt                     0      0.00%     66.36% # Class of executed instruction
system.cpu2.op_class::SimdAdd                     452      0.00%     66.36% # Class of executed instruction
system.cpu2.op_class::SimdAddAcc                    0      0.00%     66.36% # Class of executed instruction
system.cpu2.op_class::SimdAlu                     163      0.00%     66.37% # Class of executed instruction
system.cpu2.op_class::SimdCmp                       0      0.00%     66.37% # Class of executed instruction
system.cpu2.op_class::SimdCvt                     288      0.00%     66.37% # Class of executed instruction
system.cpu2.op_class::SimdMisc                    292      0.00%     66.37% # Class of executed instruction
system.cpu2.op_class::SimdMult                      0      0.00%     66.37% # Class of executed instruction
system.cpu2.op_class::SimdMultAcc                   0      0.00%     66.37% # Class of executed instruction
system.cpu2.op_class::SimdShift                   231      0.00%     66.37% # Class of executed instruction
system.cpu2.op_class::SimdShiftAcc                  0      0.00%     66.37% # Class of executed instruction
system.cpu2.op_class::SimdDiv                       0      0.00%     66.37% # Class of executed instruction
system.cpu2.op_class::SimdSqrt                      0      0.00%     66.37% # Class of executed instruction
system.cpu2.op_class::SimdFloatAdd           16252928      8.46%     74.82% # Class of executed instruction
system.cpu2.op_class::SimdFloatAlu                  0      0.00%     74.82% # Class of executed instruction
system.cpu2.op_class::SimdFloatCmp                  0      0.00%     74.82% # Class of executed instruction
system.cpu2.op_class::SimdFloatCvt                  0      0.00%     74.82% # Class of executed instruction
system.cpu2.op_class::SimdFloatDiv                  0      0.00%     74.82% # Class of executed instruction
system.cpu2.op_class::SimdFloatMisc                 0      0.00%     74.82% # Class of executed instruction
system.cpu2.op_class::SimdFloatMult          11534336      6.00%     80.83% # Class of executed instruction
system.cpu2.op_class::SimdFloatMultAcc              0      0.00%     80.83% # Class of executed instruction
system.cpu2.op_class::SimdFloatSqrt                 0      0.00%     80.83% # Class of executed instruction
system.cpu2.op_class::SimdReduceAdd                 0      0.00%     80.83% # Class of executed instruction
system.cpu2.op_class::SimdReduceAlu                 0      0.00%     80.83% # Class of executed instruction
system.cpu2.op_class::SimdReduceCmp                 0      0.00%     80.83% # Class of executed instruction
system.cpu2.op_class::SimdFloatReduceAdd            0      0.00%     80.83% # Class of executed instruction
system.cpu2.op_class::SimdFloatReduceCmp            0      0.00%     80.83% # Class of executed instruction
system.cpu2.op_class::SimdAes                       0      0.00%     80.83% # Class of executed instruction
system.cpu2.op_class::SimdAesMix                    0      0.00%     80.83% # Class of executed instruction
system.cpu2.op_class::SimdSha1Hash                  0      0.00%     80.83% # Class of executed instruction
system.cpu2.op_class::SimdSha1Hash2                 0      0.00%     80.83% # Class of executed instruction
system.cpu2.op_class::SimdSha256Hash                0      0.00%     80.83% # Class of executed instruction
system.cpu2.op_class::SimdSha256Hash2               0      0.00%     80.83% # Class of executed instruction
system.cpu2.op_class::SimdShaSigma2                 0      0.00%     80.83% # Class of executed instruction
system.cpu2.op_class::SimdShaSigma3                 0      0.00%     80.83% # Class of executed instruction
system.cpu2.op_class::SimdPredAlu                   0      0.00%     80.83% # Class of executed instruction
system.cpu2.op_class::MemRead                 3317971      1.73%     82.55% # Class of executed instruction
system.cpu2.op_class::MemWrite                 552998      0.29%     82.84% # Class of executed instruction
system.cpu2.op_class::FloatMemRead           19368301     10.08%     92.92% # Class of executed instruction
system.cpu2.op_class::FloatMemWrite          13602206      7.08%    100.00% # Class of executed instruction
system.cpu2.op_class::IprAccess                     0      0.00%    100.00% # Class of executed instruction
system.cpu2.op_class::InstPrefetch                  0      0.00%    100.00% # Class of executed instruction
system.cpu2.op_class::total                 192149891                       # Class of executed instruction
system.cpu3.Branches                          7988655                       # Number of branches fetched
system.cpu3.committedInsts                  129553691                       # Number of instructions committed
system.cpu3.committedOps                    192149106                       # Number of ops (including micro ops) committed
system.cpu3.dtb.rdAccesses                   22686420                       # TLB accesses on read requests
system.cpu3.dtb.rdMisses                         9363                       # TLB misses on read requests
system.cpu3.dtb.wrAccesses                   14155262                       # TLB accesses on write requests
system.cpu3.dtb.wrMisses                       787473                       # TLB misses on write requests
system.cpu3.idle_fraction                    0.708504                       # Percentage of idle cycles
system.cpu3.itb.rdAccesses                          0                       # TLB accesses on read requests
system.cpu3.itb.rdMisses                            0                       # TLB misses on read requests
system.cpu3.itb.wrAccesses                  197063369                       # TLB accesses on write requests
system.cpu3.itb.wrMisses                           88                       # TLB misses on write requests
system.cpu3.not_idle_fraction                0.291496                       # Percentage of non-idle cycles
system.cpu3.numCycles                      2172586339                       # number of cpu cycles simulated
system.cpu3.numWorkItemsCompleted                   0                       # number of work items this cpu completed
system.cpu3.numWorkItemsStarted                     0                       # number of work items this cpu started
system.cpu3.num_busy_cycles              633300826.231857                       # Number of busy cycles
system.cpu3.num_cc_register_reads            53120968                       # number of times the CC registers were read
system.cpu3.num_cc_register_writes           58926554                       # number of times the CC registers were written
system.cpu3.num_conditional_control_insts      7528102                       # number of instructions that are conditional controls
system.cpu3.num_fp_alu_accesses             102145931                       # Number of float alu accesses
system.cpu3.num_fp_insts                    102145931                       # number of float instructions
system.cpu3.num_fp_register_reads           141008960                       # number of times the floating registers were read
system.cpu3.num_fp_register_writes           88543533                       # number of times the floating registers were written
system.cpu3.num_func_calls                       1539                       # number of times a function call or return occured
system.cpu3.num_idle_cycles              1539285512.768143                       # Number of idle cycles
system.cpu3.num_int_alu_accesses            122897725                       # Number of integer alu accesses
system.cpu3.num_int_insts                   122897725                       # number of integer instructions
system.cpu3.num_int_register_reads          259015290                       # number of times the integer registers were read
system.cpu3.num_int_register_writes          81462804                       # number of times the integer registers were written
system.cpu3.num_load_insts                   22686416                       # Number of load instructions
system.cpu3.num_mem_refs                     36841678                       # number of memory refs
system.cpu3.num_store_insts                  14155262                       # Number of store instructions
system.cpu3.num_vec_alu_accesses                    0                       # Number of vector alu accesses
system.cpu3.num_vec_insts                           0                       # number of vector instructions
system.cpu3.num_vec_register_reads                  0                       # number of times the vector registers were read
system.cpu3.num_vec_register_writes                 0                       # number of times the vector registers were written
system.cpu3.op_class::No_OpClass                76846      0.04%      0.04% # Class of executed instruction
system.cpu3.op_class::IntAlu                108040813     56.23%     56.27% # Class of executed instruction
system.cpu3.op_class::IntMult                      39      0.00%     56.27% # Class of executed instruction
system.cpu3.op_class::IntDiv                    36012      0.02%     56.29% # Class of executed instruction
system.cpu3.op_class::FloatAdd               19365942     10.08%     66.36% # Class of executed instruction
system.cpu3.op_class::FloatCmp                      0      0.00%     66.36% # Class of executed instruction
system.cpu3.op_class::FloatCvt                     64      0.00%     66.36% # Class of executed instruction
system.cpu3.op_class::FloatMult                     0      0.00%     66.36% # Class of executed instruction
system.cpu3.op_class::FloatMultAcc                  0      0.00%     66.36% # Class of executed instruction
system.cpu3.op_class::FloatDiv                      0      0.00%     66.36% # Class of executed instruction
system.cpu3.op_class::FloatMisc                     0      0.00%     66.36% # Class of executed instruction
system.cpu3.op_class::FloatSqrt                     0      0.00%     66.36% # Class of executed instruction
system.cpu3.op_class::SimdAdd                     452      0.00%     66.36% # Class of executed instruction
system.cpu3.op_class::SimdAddAcc                    0      0.00%     66.36% # Class of executed instruction
system.cpu3.op_class::SimdAlu                     176      0.00%     66.36% # Class of executed instruction
system.cpu3.op_class::SimdCmp                       0      0.00%     66.36% # Class of executed instruction
system.cpu3.op_class::SimdCvt                     308      0.00%     66.37% # Class of executed instruction
system.cpu3.op_class::SimdMisc                    316      0.00%     66.37% # Class of executed instruction
system.cpu3.op_class::SimdMult                      0      0.00%     66.37% # Class of executed instruction
system.cpu3.op_class::SimdMultAcc                   0      0.00%     66.37% # Class of executed instruction
system.cpu3.op_class::SimdShift                   229      0.00%     66.37% # Class of executed instruction
system.cpu3.op_class::SimdShiftAcc                  0      0.00%     66.37% # Class of executed instruction
system.cpu3.op_class::SimdDiv                       0      0.00%     66.37% # Class of executed instruction
system.cpu3.op_class::SimdSqrt                      0      0.00%     66.37% # Class of executed instruction
system.cpu3.op_class::SimdFloatAdd           16252928      8.46%     74.82% # Class of executed instruction
system.cpu3.op_class::SimdFloatAlu                  0      0.00%     74.82% # Class of executed instruction
system.cpu3.op_class::SimdFloatCmp                  0      0.00%     74.82% # Class of executed instruction
system.cpu3.op_class::SimdFloatCvt                  0      0.00%     74.82% # Class of executed instruction
system.cpu3.op_class::SimdFloatDiv                  0      0.00%     74.82% # Class of executed instruction
system.cpu3.op_class::SimdFloatMisc                 0      0.00%     74.82% # Class of executed instruction
system.cpu3.op_class::SimdFloatMult          11534336      6.00%     80.83% # Class of executed instruction
system.cpu3.op_class::SimdFloatMultAcc              0      0.00%     80.83% # Class of executed instruction
system.cpu3.op_class::SimdFloatSqrt                 0      0.00%     80.83% # Class of executed instruction
system.cpu3.op_class::SimdReduceAdd                 0      0.00%     80.83% # Class of executed instruction
system.cpu3.op_class::SimdReduceAlu                 0      0.00%     80.83% # Class of executed instruction
system.cpu3.op_class::SimdReduceCmp                 0      0.00%     80.83% # Class of executed instruction
system.cpu3.op_class::SimdFloatReduceAdd            0      0.00%     80.83% # Class of executed instruction
system.cpu3.op_class::SimdFloatReduceCmp            0      0.00%     80.83% # Class of executed instruction
system.cpu3.op_class::SimdAes                       0      0.00%     80.83% # Class of executed instruction
system.cpu3.op_class::SimdAesMix                    0      0.00%     80.83% # Class of executed instruction
system.cpu3.op_class::SimdSha1Hash                  0      0.00%     80.83% # Class of executed instruction
system.cpu3.op_class::SimdSha1Hash2                 0      0.00%     80.83% # Class of executed instruction
system.cpu3.op_class::SimdSha256Hash                0      0.00%     80.83% # Class of executed instruction
system.cpu3.op_class::SimdSha256Hash2               0      0.00%     80.83% # Class of executed instruction
system.cpu3.op_class::SimdShaSigma2                 0      0.00%     80.83% # Class of executed instruction
system.cpu3.op_class::SimdShaSigma3                 0      0.00%     80.83% # Class of executed instruction
system.cpu3.op_class::SimdPredAlu                   0      0.00%     80.83% # Class of executed instruction
system.cpu3.op_class::MemRead                 3318099      1.73%     82.55% # Class of executed instruction
system.cpu3.op_class::MemWrite                 553050      0.29%     82.84% # Class of executed instruction
system.cpu3.op_class::FloatMemRead           19368317     10.08%     92.92% # Class of executed instruction
system.cpu3.op_class::FloatMemWrite          13602212      7.08%    100.00% # Class of executed instruction
system.cpu3.op_class::IprAccess                     0      0.00%    100.00% # Class of executed instruction
system.cpu3.op_class::InstPrefetch                  0      0.00%    100.00% # Class of executed instruction
system.cpu3.op_class::total                 192150139                       # Class of executed instruction
system.ruby.Directory_Controller.E.deallocTBE |      577348     25.00%     25.00% |      579165     25.08%     50.08% |      579122     25.08%     75.16% |      573684     24.84%    100.00%
system.ruby.Directory_Controller.E.deallocTBE::total      2309319                      
system.ruby.Directory_Controller.E_PutML1C1_0.Progress |      250529     25.01%     25.01% |      250460     25.01%     50.02% |      250495     25.01%     75.03% |      250151     24.97%    100.00%
system.ruby.Directory_Controller.E_PutML1C1_0.Progress::total      1001635                      
system.ruby.Directory_Controller.I.deallocTBE |     1050505     25.02%     25.02% |     1052542     25.07%     50.09% |     1050752     25.03%     75.11% |     1044959     24.89%    100.00%
system.ruby.Directory_Controller.I.deallocTBE::total      4198758                      
system.ruby.Directory_Controller.I_GetML1C1_0.Progress |      474023     25.04%     25.04% |      474237     25.05%     50.09% |      472530     24.96%     75.06% |      472163     24.94%    100.00%
system.ruby.Directory_Controller.I_GetML1C1_0.Progress::total      1892953                      
system.ruby.Directory_Controller.I_GetML1C1_0.Stallreqto_in |           0      0.00%      0.00% |           0      0.00%      0.00% |          19     55.88%     55.88% |          15     44.12%    100.00%
system.ruby.Directory_Controller.I_GetML1C1_0.Stallreqto_in::total           34                      
system.ruby.Directory_Controller.I_GetSL1C1_0.Progress |      577348     25.00%     25.00% |      579165     25.08%     50.08% |      579122     25.08%     75.16% |      573684     24.84%    100.00%
system.ruby.Directory_Controller.I_GetSL1C1_0.Progress::total      2309319                      
system.ruby.Directory_Controller.I_GetSL1C1_0.Stallreqto_in |        1296     27.68%     27.68% |        1307     27.92%     55.60% |        1054     22.51%     78.11% |        1025     21.89%    100.00%
system.ruby.Directory_Controller.I_GetSL1C1_0.Stallreqto_in::total         4682                      
system.ruby.Directory_Controller.M.deallocTBE |      474061     25.04%     25.04% |      474266     25.05%     50.09% |      472651     24.96%     75.05% |      472325     24.95%    100.00%
system.ruby.Directory_Controller.M.deallocTBE::total      1893303                      
system.ruby.Directory_Controller.M_PutML1C1_0.Progress |      473450     25.04%     25.04% |      473689     25.05%     50.10% |      471954     24.96%     75.06% |      471583     24.94%    100.00%
system.ruby.Directory_Controller.M_PutML1C1_0.Progress::total      1890676                      
system.ruby.Directory_Controller.O.deallocTBE |        2638     20.71%     20.71% |        3798     29.82%     50.53% |        2974     23.35%     73.89% |        3326     26.11%    100.00%
system.ruby.Directory_Controller.O.deallocTBE::total        12736                      
system.ruby.Directory_Controller.O_GetML1C1_0.Progress |           3     10.00%     10.00% |           4     13.33%     23.33% |           5     16.67%     40.00% |          18     60.00%    100.00%
system.ruby.Directory_Controller.O_GetML1C1_0.Progress::total           30                      
system.ruby.Directory_Controller.O_GetML1C1_0.Stallreqto_in |          16     10.81%     10.81% |          18     12.16%     22.97% |          38     25.68%     48.65% |          76     51.35%    100.00%
system.ruby.Directory_Controller.O_GetML1C1_0.Stallreqto_in::total          148                      
system.ruby.Directory_Controller.O_PutML1C1_0.Progress |         374     24.93%     24.93% |         373     24.87%     49.80% |         368     24.53%     74.33% |         385     25.67%    100.00%
system.ruby.Directory_Controller.O_PutML1C1_0.Progress::total         1500                      
system.ruby.Directory_Controller.O_PutML1C1_0.Stallreqto_in |           3     33.33%     33.33% |           2     22.22%     55.56% |           2     22.22%     77.78% |           2     22.22%    100.00%
system.ruby.Directory_Controller.O_PutML1C1_0.Stallreqto_in::total            9                      
system.ruby.Directory_Controller.Progress |     1788057     25.03%     25.03% |     1790150     25.06%     50.08% |     1785310     24.99%     75.07% |     1781276     24.93%    100.00%
system.ruby.Directory_Controller.Progress::total      7144793                      
system.ruby.Directory_Controller.S.deallocTBE |       25095     25.32%     25.32% |       24881     25.10%     50.41% |       22092     22.29%     72.70% |       27062     27.30%    100.00%
system.ruby.Directory_Controller.S.deallocTBE::total        99130                      
system.ruby.Directory_Controller.S_GetML1C1_0.Progress |           0      0.00%      0.00% |           0      0.00%      0.00% |           0      0.00%      0.00% |           1    100.00%    100.00%
system.ruby.Directory_Controller.S_GetML1C1_0.Progress::total            1                      
system.ruby.Directory_Controller.S_GetSL1C1_0.Progress |       12330     25.33%     25.33% |       12222     25.11%     50.44% |       10836     22.26%     72.70% |       13291     27.30%    100.00%
system.ruby.Directory_Controller.S_GetSL1C1_0.Progress::total        48679                      
system.ruby.Directory_Controller.S_GetSL1C1_0.Stallreqto_in |          44     25.43%     25.43% |          16      9.25%     34.68% |          75     43.35%     78.03% |          38     21.97%    100.00%
system.ruby.Directory_Controller.S_GetSL1C1_0.Stallreqto_in::total          173                      
system.ruby.Directory_Controller.Stallreqto_in |        1359     26.93%     26.93% |        1343     26.62%     53.55% |        1188     23.54%     77.09% |        1156     22.91%    100.00%
system.ruby.Directory_Controller.Stallreqto_in::total         5046                      
system.ruby.Directory_Controller.deallocTBE |     2129647     25.02%     25.02% |     2134652     25.07%     50.09% |     2127591     24.99%     75.08% |     2121356     24.92%    100.00%
system.ruby.Directory_Controller.deallocTBE::total      8513246                      
system.ruby.IFETCH.hit_latency_hist_seqr::bucket_size            1                      
system.ruby.IFETCH.hit_latency_hist_seqr::max_bucket            9                      
system.ruby.IFETCH.hit_latency_hist_seqr::samples   1343695848                      
system.ruby.IFETCH.hit_latency_hist_seqr |  1343695848    100.00%    100.00% |           0      0.00%    100.00% |           0      0.00%    100.00% |           0      0.00%    100.00% |           0      0.00%    100.00% |           0      0.00%    100.00% |           0      0.00%    100.00% |           0      0.00%    100.00% |           0      0.00%    100.00% |           0      0.00%    100.00%
system.ruby.IFETCH.hit_latency_hist_seqr::total   1343695848                      
system.ruby.IFETCH.latency_hist_seqr::bucket_size           32                      
system.ruby.IFETCH.latency_hist_seqr::max_bucket          319                      
system.ruby.IFETCH.latency_hist_seqr::samples   1343810309                      
system.ruby.IFETCH.latency_hist_seqr::mean     0.000000                      
system.ruby.IFETCH.latency_hist_seqr::stdev     0.004556                      
system.ruby.IFETCH.latency_hist_seqr     |  1343810308    100.00%    100.00% |           0      0.00%    100.00% |           0      0.00%    100.00% |           0      0.00%    100.00% |           0      0.00%    100.00% |           1      0.00%    100.00% |           0      0.00%    100.00% |           0      0.00%    100.00% |           0      0.00%    100.00% |           0      0.00%    100.00%
system.ruby.IFETCH.latency_hist_seqr::total   1343810309                      
system.ruby.IFETCH.miss_latency_hist_seqr::bucket_size           32                      
system.ruby.IFETCH.miss_latency_hist_seqr::max_bucket          319                      
system.ruby.IFETCH.miss_latency_hist_seqr::samples       114461                      
system.ruby.IFETCH.miss_latency_hist_seqr::mean     0.001459                      
system.ruby.IFETCH.miss_latency_hist_seqr::stdev     0.493614                      
system.ruby.IFETCH.miss_latency_hist_seqr |      114460    100.00%    100.00% |           0      0.00%    100.00% |           0      0.00%    100.00% |           0      0.00%    100.00% |           0      0.00%    100.00% |           1      0.00%    100.00% |           0      0.00%    100.00% |           0      0.00%    100.00% |           0      0.00%    100.00% |           0      0.00%    100.00%
system.ruby.IFETCH.miss_latency_hist_seqr::total       114461                      
system.ruby.L1Cache_Controller.E.EloadEEvent |   607331518     96.04%     96.04% |     7786128      1.23%     97.27% |     7889049      1.25%     98.52% |     9386572      1.48%    100.00%
system.ruby.L1Cache_Controller.E.EloadEEvent::total    632393267                      
system.ruby.L1Cache_Controller.E.EstoreMEvent |      447469     44.67%     44.67% |      182490     18.22%     62.89% |      190777     19.04%     81.93% |      180983     18.07%    100.00%
system.ruby.L1Cache_Controller.E.EstoreMEvent::total      1001719                      
system.ruby.L1Cache_Controller.E.Stallfwdfrom_in |           0      0.00%      0.00% |           8     11.94%     11.94% |          12     17.91%     29.85% |          47     70.15%    100.00%
system.ruby.L1Cache_Controller.E.Stallfwdfrom_in::total           67                      
system.ruby.L1Cache_Controller.E.allocTBE |      373354     28.61%     28.61% |      313848     24.05%     52.66% |      306249     23.47%     76.13% |      311515     23.87%    100.00%
system.ruby.L1Cache_Controller.E.allocTBE::total      1304966                      
system.ruby.L1Cache_Controller.E.externalloadErespfrom_in |      822016     35.60%     35.60% |      496663     21.51%     57.10% |      497496     21.54%     78.65% |      493144     21.35%    100.00%
system.ruby.L1Cache_Controller.E.externalloadErespfrom_in::total      2309319                      
system.ruby.L1Cache_Controller.E_evict.Progress |      373354     28.61%     28.61% |      313848     24.05%     52.66% |      306249     23.47%     76.13% |      311515     23.87%    100.00%
system.ruby.L1Cache_Controller.E_evict.Progress::total      1304966                      
system.ruby.L1Cache_Controller.E_evict.Stallmandatory_in |     1026536     28.61%     28.61% |      863023     24.05%     52.66% |      841583     23.46%     76.12% |      856754     23.88%    100.00%
system.ruby.L1Cache_Controller.E_evict.Stallmandatory_in::total      3587896                      
system.ruby.L1Cache_Controller.EloadEEvent |   607331518     96.04%     96.04% |     7786128      1.23%     97.27% |     7889049      1.25%     98.52% |     9386572      1.48%    100.00%
system.ruby.L1Cache_Controller.EloadEEvent::total    632393267                      
system.ruby.L1Cache_Controller.EstoreMEvent |      447469     44.67%     44.67% |      182490     18.22%     62.89% |      190777     19.04%     81.93% |      180983     18.07%    100.00%
system.ruby.L1Cache_Controller.EstoreMEvent::total      1001719                      
system.ruby.L1Cache_Controller.I.allocI_load |      837718     35.41%     35.41% |      513053     21.69%     57.10% |      511491     21.62%     78.72% |      503369     21.28%    100.00%
system.ruby.L1Cache_Controller.I.allocI_load::total      2365631                      
system.ruby.L1Cache_Controller.I.allocI_store |      695224     36.72%     36.72% |      405379     21.41%     58.14% |      395934     20.91%     79.05% |      396589     20.95%    100.00%
system.ruby.L1Cache_Controller.I.allocI_store::total      1893126                      
system.ruby.L1Cache_Controller.I.deallocfwdfrom_in |     1531918     36.01%     36.01% |      917422     21.56%     57.57% |      906415     21.30%     78.87% |      898949     21.13%    100.00%
system.ruby.L1Cache_Controller.I.deallocfwdfrom_in::total      4254704                      
system.ruby.L1Cache_Controller.I_load.Stallfwdfrom_in |          58      3.49%      3.49% |         282     16.95%     20.43% |         394     23.68%     44.11% |         930     55.89%    100.00%
system.ruby.L1Cache_Controller.I_load.Stallfwdfrom_in::total         1664                      
system.ruby.L1Cache_Controller.I_store.Progress |          14     27.45%     27.45% |          12     23.53%     50.98% |          13     25.49%     76.47% |          12     23.53%    100.00%
system.ruby.L1Cache_Controller.I_store.Progress::total           51                      
system.ruby.L1Cache_Controller.I_store.Stallfwdfrom_in |          22     11.40%     11.40% |          51     26.42%     37.82% |          68     35.23%     73.06% |          52     26.94%    100.00%
system.ruby.L1Cache_Controller.I_store.Stallfwdfrom_in::total          193                      
system.ruby.L1Cache_Controller.M.MloadMEvent |    70799778     62.93%     62.93% |    13909562     12.36%     75.29% |    13891741     12.35%     87.64% |    13911555     12.36%    100.00%
system.ruby.L1Cache_Controller.M.MloadMEvent::total    112512636                      
system.ruby.L1Cache_Controller.M.MstoreMEvent |    63409527     59.99%     59.99% |    14095520     13.33%     73.32% |    14096569     13.34%     86.66% |    14105765     13.34%    100.00%
system.ruby.L1Cache_Controller.M.MstoreMEvent::total    105707381                      
system.ruby.L1Cache_Controller.M.Stallfwdfrom_in |           0      0.00%      0.00% |           1     20.00%     20.00% |           4     80.00%    100.00% |           0      0.00%    100.00%
system.ruby.L1Cache_Controller.M.Stallfwdfrom_in::total            5                      
system.ruby.L1Cache_Controller.M.allocTBE |     1142147     39.49%     39.49% |      587209     20.30%     59.79% |      586056     20.26%     80.05% |      576899     19.95%    100.00%
system.ruby.L1Cache_Controller.M.allocTBE::total      2892311                      
system.ruby.L1Cache_Controller.M.externalstoreMrespfrom_in |      695264     36.72%     36.72% |      405418     21.41%     58.14% |      395982     20.91%     79.05% |      396639     20.95%    100.00%
system.ruby.L1Cache_Controller.M.externalstoreMrespfrom_in::total      1893303                      
system.ruby.L1Cache_Controller.M_evict.Progress |     1142147     39.49%     39.49% |      587209     20.30%     59.79% |      586056     20.26%     80.05% |      576899     19.95%    100.00%
system.ruby.L1Cache_Controller.M_evict.Progress::total      2892311                      
system.ruby.L1Cache_Controller.M_evict.Stallmandatory_in |     5424105     39.48%     39.48% |     2789313     20.30%     59.79% |     2783656     20.26%     80.05% |     2740255     19.95%    100.00%
system.ruby.L1Cache_Controller.M_evict.Stallmandatory_in::total     13737329                      
system.ruby.L1Cache_Controller.MloadMEvent |    70799778     62.93%     62.93% |    13909562     12.36%     75.29% |    13891741     12.35%     87.64% |    13911555     12.36%    100.00%
system.ruby.L1Cache_Controller.MloadMEvent::total    112512636                      
system.ruby.L1Cache_Controller.MstoreMEvent |    63409527     59.99%     59.99% |    14095520     13.33%     73.32% |    14096569     13.34%     86.66% |    14105765     13.34%    100.00%
system.ruby.L1Cache_Controller.MstoreMEvent::total    105707381                      
system.ruby.L1Cache_Controller.O.OloadOEvent |    16495826     76.98%     76.98% |     1538329      7.18%     84.16% |     1138115      5.31%     89.47% |     2256490     10.53%    100.00%
system.ruby.L1Cache_Controller.O.OloadOEvent::total     21428760                      
system.ruby.L1Cache_Controller.O.allocTBE |         710     46.41%     46.41% |         150      9.80%     56.21% |         263     17.19%     73.40% |         407     26.60%    100.00%
system.ruby.L1Cache_Controller.O.allocTBE::total         1530                      
system.ruby.L1Cache_Controller.O.deallocTBE |        1694     22.19%     22.19% |        1777     23.28%     45.47% |        1609     21.08%     66.55% |        2553     33.45%    100.00%
system.ruby.L1Cache_Controller.O.deallocTBE::total         7633                      
system.ruby.L1Cache_Controller.O_evict.Progress |         698     46.53%     46.53% |         146      9.73%     56.27% |         255     17.00%     73.27% |         401     26.73%    100.00%
system.ruby.L1Cache_Controller.O_evict.Progress::total         1500                      
system.ruby.L1Cache_Controller.O_evict.Stallmandatory_in |        3319     46.56%     46.56% |         694      9.73%     56.29% |        1216     17.06%     73.35% |        1900     26.65%    100.00%
system.ruby.L1Cache_Controller.O_evict.Stallmandatory_in::total         7129                      
system.ruby.L1Cache_Controller.O_store.Progress |          12     40.00%     40.00% |           4     13.33%     53.33% |           8     26.67%     80.00% |           6     20.00%    100.00%
system.ruby.L1Cache_Controller.O_store.Progress::total           30                      
system.ruby.L1Cache_Controller.O_store_GetM_Ack_AD.Progress |          17     35.42%     35.42% |           5     10.42%     45.83% |          11     22.92%     68.75% |          15     31.25%    100.00%
system.ruby.L1Cache_Controller.O_store_GetM_Ack_AD.Progress::total           48                      
system.ruby.L1Cache_Controller.O_store_GetM_Ack_AD.Stallfwdfrom_in |           4     22.22%     22.22% |           2     11.11%     33.33% |           9     50.00%     83.33% |           3     16.67%    100.00%
system.ruby.L1Cache_Controller.O_store_GetM_Ack_AD.Stallfwdfrom_in::total           18                      
system.ruby.L1Cache_Controller.OloadOEvent |    16495826     76.98%     76.98% |     1538329      7.18%     84.16% |     1138115      5.31%     89.47% |     2256490     10.53%    100.00%
system.ruby.L1Cache_Controller.OloadOEvent::total     21428760                      
system.ruby.L1Cache_Controller.Progress  |     1531893     36.01%     36.01% |      917382     21.56%     57.57% |      906395     21.30%     78.87% |      898938     21.13%    100.00%
system.ruby.L1Cache_Controller.Progress::total      4254608                      
system.ruby.L1Cache_Controller.S.SloadSEvent |   179347619     23.48%     23.48% |   195427956     25.59%     49.07% |   195766429     25.63%     74.71% |   193162640     25.29%    100.00%
system.ruby.L1Cache_Controller.S.SloadSEvent::total    763704644                      
system.ruby.L1Cache_Controller.S.allocTBE |       15648     28.10%     28.10% |       16155     29.01%     57.12% |       13794     24.77%     81.89% |       10085     18.11%    100.00%
system.ruby.L1Cache_Controller.S.allocTBE::total        55682                      
system.ruby.L1Cache_Controller.S.externalloadSrespfrom_in |       15702     27.88%     27.88% |       16390     29.11%     56.99% |       13995     24.85%     81.84% |       10225     18.16%    100.00%
system.ruby.L1Cache_Controller.S.externalloadSrespfrom_in::total        56312                      
system.ruby.L1Cache_Controller.S_evict.Progress |       15620     28.13%     28.13% |       16120     29.03%     57.15% |       13754     24.77%     81.92% |       10041     18.08%    100.00%
system.ruby.L1Cache_Controller.S_evict.Progress::total        55535                      
system.ruby.L1Cache_Controller.S_evict.Stallmandatory_in |       42907     28.02%     28.02% |       44162     28.84%     56.87% |       38627     25.23%     82.10% |       27408     17.90%    100.00%
system.ruby.L1Cache_Controller.S_evict.Stallmandatory_in::total       153104                      
system.ruby.L1Cache_Controller.S_store.Progress |          31     18.56%     18.56% |          38     22.75%     41.32% |          49     29.34%     70.66% |          49     29.34%    100.00%
system.ruby.L1Cache_Controller.S_store.Progress::total          167                      
system.ruby.L1Cache_Controller.S_store.Stallfwdfrom_in |           3     30.00%     30.00% |           2     20.00%     50.00% |           3     30.00%     80.00% |           2     20.00%    100.00%
system.ruby.L1Cache_Controller.S_store.Stallfwdfrom_in::total           10                      
system.ruby.L1Cache_Controller.SloadSEvent |   179347619     23.48%     23.48% |   195427956     25.59%     49.07% |   195766429     25.63%     74.71% |   193162640     25.29%    100.00%
system.ruby.L1Cache_Controller.SloadSEvent::total    763704644                      
system.ruby.L1Cache_Controller.Stallfwdfrom_in |          87      4.45%      4.45% |         346     17.68%     22.13% |         490     25.04%     47.16% |        1034     52.84%    100.00%
system.ruby.L1Cache_Controller.Stallfwdfrom_in::total         1957                      
system.ruby.L1Cache_Controller.Stallmandatory_in |     6496867     37.16%     37.16% |     3697192     21.14%     58.30% |     3665082     20.96%     79.26% |     3626317     20.74%    100.00%
system.ruby.L1Cache_Controller.Stallmandatory_in::total     17485458                      
system.ruby.L1Cache_Controller.allocI_load |      837718     35.41%     35.41% |      513053     21.69%     57.10% |      511491     21.62%     78.72% |      503369     21.28%    100.00%
system.ruby.L1Cache_Controller.allocI_load::total      2365631                      
system.ruby.L1Cache_Controller.allocI_store |      695224     36.72%     36.72% |      405379     21.41%     58.14% |      395934     20.91%     79.05% |      396589     20.95%    100.00%
system.ruby.L1Cache_Controller.allocI_store::total      1893126                      
system.ruby.L1Cache_Controller.allocTBE  |     1531859     36.01%     36.01% |      917362     21.56%     57.57% |      906362     21.30%     78.87% |      898906     21.13%    100.00%
system.ruby.L1Cache_Controller.allocTBE::total      4254489                      
system.ruby.L1Cache_Controller.deallocTBE |        1694     22.19%     22.19% |        1777     23.28%     45.47% |        1609     21.08%     66.55% |        2553     33.45%    100.00%
system.ruby.L1Cache_Controller.deallocTBE::total         7633                      
system.ruby.L1Cache_Controller.deallocfwdfrom_in |     1531918     36.01%     36.01% |      917422     21.56%     57.57% |      906415     21.30%     78.87% |      898949     21.13%    100.00%
system.ruby.L1Cache_Controller.deallocfwdfrom_in::total      4254704                      
system.ruby.L1Cache_Controller.externalloadErespfrom_in |      822016     35.60%     35.60% |      496663     21.51%     57.10% |      497496     21.54%     78.65% |      493144     21.35%    100.00%
system.ruby.L1Cache_Controller.externalloadErespfrom_in::total      2309319                      
system.ruby.L1Cache_Controller.externalloadSrespfrom_in |       15702     27.88%     27.88% |       16390     29.11%     56.99% |       13995     24.85%     81.84% |       10225     18.16%    100.00%
system.ruby.L1Cache_Controller.externalloadSrespfrom_in::total        56312                      
system.ruby.L1Cache_Controller.externalstoreMrespfrom_in |      695264     36.72%     36.72% |      405418     21.41%     58.14% |      395982     20.91%     79.05% |      396639     20.95%    100.00%
system.ruby.L1Cache_Controller.externalstoreMrespfrom_in::total      1893303                      
system.ruby.LD.hit_latency_hist_seqr::bucket_size            1                      
system.ruby.LD.hit_latency_hist_seqr::max_bucket            9                      
system.ruby.LD.hit_latency_hist_seqr::samples    186343459                      
system.ruby.LD.hit_latency_hist_seqr     |   186343459    100.00%    100.00% |           0      0.00%    100.00% |           0      0.00%    100.00% |           0      0.00%    100.00% |           0      0.00%    100.00% |           0      0.00%    100.00% |           0      0.00%    100.00% |           0      0.00%    100.00% |           0      0.00%    100.00% |           0      0.00%    100.00%
system.ruby.LD.hit_latency_hist_seqr::total    186343459                      
system.ruby.LD.latency_hist_seqr::bucket_size            1                      
system.ruby.LD.latency_hist_seqr::max_bucket            9                      
system.ruby.LD.latency_hist_seqr::samples    188594629                      
system.ruby.LD.latency_hist_seqr         |   188594629    100.00%    100.00% |           0      0.00%    100.00% |           0      0.00%    100.00% |           0      0.00%    100.00% |           0      0.00%    100.00% |           0      0.00%    100.00% |           0      0.00%    100.00% |           0      0.00%    100.00% |           0      0.00%    100.00% |           0      0.00%    100.00%
system.ruby.LD.latency_hist_seqr::total     188594629                      
system.ruby.LD.miss_latency_hist_seqr::bucket_size            1                      
system.ruby.LD.miss_latency_hist_seqr::max_bucket            9                      
system.ruby.LD.miss_latency_hist_seqr::samples      2251170                      
system.ruby.LD.miss_latency_hist_seqr    |     2251170    100.00%    100.00% |           0      0.00%    100.00% |           0      0.00%    100.00% |           0      0.00%    100.00% |           0      0.00%    100.00% |           0      0.00%    100.00% |           0      0.00%    100.00% |           0      0.00%    100.00% |           0      0.00%    100.00% |           0      0.00%    100.00%
system.ruby.LD.miss_latency_hist_seqr::total      2251170                      
system.ruby.Locked_RMW_Read.hit_latency_hist_seqr::bucket_size            1                      
system.ruby.Locked_RMW_Read.hit_latency_hist_seqr::max_bucket            9                      
system.ruby.Locked_RMW_Read.hit_latency_hist_seqr::samples          502                      
system.ruby.Locked_RMW_Read.hit_latency_hist_seqr |         502    100.00%    100.00% |           0      0.00%    100.00% |           0      0.00%    100.00% |           0      0.00%    100.00% |           0      0.00%    100.00% |           0      0.00%    100.00% |           0      0.00%    100.00% |           0      0.00%    100.00% |           0      0.00%    100.00% |           0      0.00%    100.00%
system.ruby.Locked_RMW_Read.hit_latency_hist_seqr::total          502                      
system.ruby.Locked_RMW_Read.latency_hist_seqr::bucket_size            1                      
system.ruby.Locked_RMW_Read.latency_hist_seqr::max_bucket            9                      
system.ruby.Locked_RMW_Read.latency_hist_seqr::samples          715                      
system.ruby.Locked_RMW_Read.latency_hist_seqr |         715    100.00%    100.00% |           0      0.00%    100.00% |           0      0.00%    100.00% |           0      0.00%    100.00% |           0      0.00%    100.00% |           0      0.00%    100.00% |           0      0.00%    100.00% |           0      0.00%    100.00% |           0      0.00%    100.00% |           0      0.00%    100.00%
system.ruby.Locked_RMW_Read.latency_hist_seqr::total          715                      
system.ruby.Locked_RMW_Read.miss_latency_hist_seqr::bucket_size            1                      
system.ruby.Locked_RMW_Read.miss_latency_hist_seqr::max_bucket            9                      
system.ruby.Locked_RMW_Read.miss_latency_hist_seqr::samples          213                      
system.ruby.Locked_RMW_Read.miss_latency_hist_seqr |         213    100.00%    100.00% |           0      0.00%    100.00% |           0      0.00%    100.00% |           0      0.00%    100.00% |           0      0.00%    100.00% |           0      0.00%    100.00% |           0      0.00%    100.00% |           0      0.00%    100.00% |           0      0.00%    100.00% |           0      0.00%    100.00%
system.ruby.Locked_RMW_Read.miss_latency_hist_seqr::total          213                      
system.ruby.Locked_RMW_Write.hit_latency_hist_seqr::bucket_size            1                      
system.ruby.Locked_RMW_Write.hit_latency_hist_seqr::max_bucket            9                      
system.ruby.Locked_RMW_Write.hit_latency_hist_seqr::samples          715                      
system.ruby.Locked_RMW_Write.hit_latency_hist_seqr |         715    100.00%    100.00% |           0      0.00%    100.00% |           0      0.00%    100.00% |           0      0.00%    100.00% |           0      0.00%    100.00% |           0      0.00%    100.00% |           0      0.00%    100.00% |           0      0.00%    100.00% |           0      0.00%    100.00% |           0      0.00%    100.00%
system.ruby.Locked_RMW_Write.hit_latency_hist_seqr::total          715                      
system.ruby.Locked_RMW_Write.latency_hist_seqr::bucket_size            1                      
system.ruby.Locked_RMW_Write.latency_hist_seqr::max_bucket            9                      
system.ruby.Locked_RMW_Write.latency_hist_seqr::samples          715                      
system.ruby.Locked_RMW_Write.latency_hist_seqr |         715    100.00%    100.00% |           0      0.00%    100.00% |           0      0.00%    100.00% |           0      0.00%    100.00% |           0      0.00%    100.00% |           0      0.00%    100.00% |           0      0.00%    100.00% |           0      0.00%    100.00% |           0      0.00%    100.00% |           0      0.00%    100.00%
system.ruby.Locked_RMW_Write.latency_hist_seqr::total          715                      
system.ruby.RMW_Read.hit_latency_hist_seqr::bucket_size            1                      
system.ruby.RMW_Read.hit_latency_hist_seqr::max_bucket            9                      
system.ruby.RMW_Read.hit_latency_hist_seqr::samples      2118211                      
system.ruby.RMW_Read.hit_latency_hist_seqr |     2118211    100.00%    100.00% |           0      0.00%    100.00% |           0      0.00%    100.00% |           0      0.00%    100.00% |           0      0.00%    100.00% |           0      0.00%    100.00% |           0      0.00%    100.00% |           0      0.00%    100.00% |           0      0.00%    100.00% |           0      0.00%    100.00%
system.ruby.RMW_Read.hit_latency_hist_seqr::total      2118211                      
system.ruby.RMW_Read.latency_hist_seqr::bucket_size            1                      
system.ruby.RMW_Read.latency_hist_seqr::max_bucket            9                      
system.ruby.RMW_Read.latency_hist_seqr::samples      2118649                      
system.ruby.RMW_Read.latency_hist_seqr   |     2118649    100.00%    100.00% |           0      0.00%    100.00% |           0      0.00%    100.00% |           0      0.00%    100.00% |           0      0.00%    100.00% |           0      0.00%    100.00% |           0      0.00%    100.00% |           0      0.00%    100.00% |           0      0.00%    100.00% |           0      0.00%    100.00%
system.ruby.RMW_Read.latency_hist_seqr::total      2118649                      
system.ruby.RMW_Read.miss_latency_hist_seqr::bucket_size            1                      
system.ruby.RMW_Read.miss_latency_hist_seqr::max_bucket            9                      
system.ruby.RMW_Read.miss_latency_hist_seqr::samples          438                      
system.ruby.RMW_Read.miss_latency_hist_seqr |         438    100.00%    100.00% |           0      0.00%    100.00% |           0      0.00%    100.00% |           0      0.00%    100.00% |           0      0.00%    100.00% |           0      0.00%    100.00% |           0      0.00%    100.00% |           0      0.00%    100.00% |           0      0.00%    100.00% |           0      0.00%    100.00%
system.ruby.RMW_Read.miss_latency_hist_seqr::total          438                      
system.ruby.ST.hit_latency_hist_seqr::bucket_size            1                      
system.ruby.ST.hit_latency_hist_seqr::max_bucket            9                      
system.ruby.ST.hit_latency_hist_seqr::samples    104589672                      
system.ruby.ST.hit_latency_hist_seqr     |   104589672    100.00%    100.00% |           0      0.00%    100.00% |           0      0.00%    100.00% |           0      0.00%    100.00% |           0      0.00%    100.00% |           0      0.00%    100.00% |           0      0.00%    100.00% |           0      0.00%    100.00% |           0      0.00%    100.00% |           0      0.00%    100.00%
system.ruby.ST.hit_latency_hist_seqr::total    104589672                      
system.ruby.ST.latency_hist_seqr::bucket_size            1                      
system.ruby.ST.latency_hist_seqr::max_bucket            9                      
system.ruby.ST.latency_hist_seqr::samples    106482324                      
system.ruby.ST.latency_hist_seqr         |   106482324    100.00%    100.00% |           0      0.00%    100.00% |           0      0.00%    100.00% |           0      0.00%    100.00% |           0      0.00%    100.00% |           0      0.00%    100.00% |           0      0.00%    100.00% |           0      0.00%    100.00% |           0      0.00%    100.00% |           0      0.00%    100.00%
system.ruby.ST.latency_hist_seqr::total     106482324                      
system.ruby.ST.miss_latency_hist_seqr::bucket_size            1                      
system.ruby.ST.miss_latency_hist_seqr::max_bucket            9                      
system.ruby.ST.miss_latency_hist_seqr::samples      1892652                      
system.ruby.ST.miss_latency_hist_seqr    |     1892652    100.00%    100.00% |           0      0.00%    100.00% |           0      0.00%    100.00% |           0      0.00%    100.00% |           0      0.00%    100.00% |           0      0.00%    100.00% |           0      0.00%    100.00% |           0      0.00%    100.00% |           0      0.00%    100.00% |           0      0.00%    100.00%
system.ruby.ST.miss_latency_hist_seqr::total      1892652                      
system.ruby.dir_cntrl0.fwdFrom.avg_buf_msgs     0.002944                       # Average number of messages in buffer
system.ruby.dir_cntrl0.fwdFrom.avg_stall_time  2999.928566                       # Average number of cycles messages are stalled in this MB
system.ruby.dir_cntrl0.reqTo.avg_buf_msgs     0.000986                       # Average number of messages in buffer
system.ruby.dir_cntrl0.reqTo.avg_stall_time  3879.034558                       # Average number of cycles messages are stalled in this MB
system.ruby.dir_cntrl0.requestToMemory.avg_buf_msgs     0.000823                       # Average number of messages in buffer
system.ruby.dir_cntrl0.requestToMemory.avg_stall_time   499.999815                       # Average number of cycles messages are stalled in this MB
system.ruby.dir_cntrl0.respFrom.avg_buf_msgs     0.002938                       # Average number of messages in buffer
system.ruby.dir_cntrl0.respFrom.avg_stall_time  3000.021858                       # Average number of cycles messages are stalled in this MB
system.ruby.dir_cntrl0.responseFromMemory.avg_buf_msgs     0.001510                       # Average number of messages in buffer
system.ruby.dir_cntrl0.responseFromMemory.avg_stall_time   499.999791                       # Average number of cycles messages are stalled in this MB
system.ruby.dir_cntrl1.fwdFrom.avg_buf_msgs     0.002952                       # Average number of messages in buffer
system.ruby.dir_cntrl1.fwdFrom.avg_stall_time  2999.928907                       # Average number of cycles messages are stalled in this MB
system.ruby.dir_cntrl1.reqTo.avg_buf_msgs     0.000989                       # Average number of messages in buffer
system.ruby.dir_cntrl1.reqTo.avg_stall_time  4743.432563                       # Average number of cycles messages are stalled in this MB
system.ruby.dir_cntrl1.requestToMemory.avg_buf_msgs     0.000824                       # Average number of messages in buffer
system.ruby.dir_cntrl1.requestToMemory.avg_stall_time   499.999851                       # Average number of cycles messages are stalled in this MB
system.ruby.dir_cntrl1.respFrom.avg_buf_msgs     0.002943                       # Average number of messages in buffer
system.ruby.dir_cntrl1.respFrom.avg_stall_time  3000.022731                       # Average number of cycles messages are stalled in this MB
system.ruby.dir_cntrl1.responseFromMemory.avg_buf_msgs     0.001510                       # Average number of messages in buffer
system.ruby.dir_cntrl1.responseFromMemory.avg_stall_time   499.999826                       # Average number of cycles messages are stalled in this MB
system.ruby.dir_cntrl2.fwdFrom.avg_buf_msgs     0.002941                       # Average number of messages in buffer
system.ruby.dir_cntrl2.fwdFrom.avg_stall_time  2999.971631                       # Average number of cycles messages are stalled in this MB
system.ruby.dir_cntrl2.reqTo.avg_buf_msgs     0.000985                       # Average number of messages in buffer
system.ruby.dir_cntrl2.reqTo.avg_stall_time  4534.337674                       # Average number of cycles messages are stalled in this MB
system.ruby.dir_cntrl2.requestToMemory.avg_buf_msgs     0.000822                       # Average number of messages in buffer
system.ruby.dir_cntrl2.requestToMemory.avg_stall_time   499.999998                       # Average number of cycles messages are stalled in this MB
system.ruby.dir_cntrl2.respFrom.avg_buf_msgs     0.002934                       # Average number of messages in buffer
system.ruby.dir_cntrl2.respFrom.avg_stall_time  3000.022776                       # Average number of cycles messages are stalled in this MB
system.ruby.dir_cntrl2.responseFromMemory.avg_buf_msgs     0.001507                       # Average number of messages in buffer
system.ruby.dir_cntrl2.responseFromMemory.avg_stall_time   499.999969                       # Average number of cycles messages are stalled in this MB
system.ruby.dir_cntrl3.fwdFrom.avg_buf_msgs     0.002933                       # Average number of messages in buffer
system.ruby.dir_cntrl3.fwdFrom.avg_stall_time  2999.971960                       # Average number of cycles messages are stalled in this MB
system.ruby.dir_cntrl3.reqTo.avg_buf_msgs     0.000982                       # Average number of messages in buffer
system.ruby.dir_cntrl3.reqTo.avg_stall_time  5439.325318                       # Average number of cycles messages are stalled in this MB
[...]
system.mem_ctrls1.wrQLenPdf::12                     1                       # What write queue length does an incoming req see
system.mem_ctrls1.wrQLenPdf::13                     1                       # What write queue length does an incoming req see
system.mem_ctrls1.wrQLenPdf::14                     1                       # What write queue length does an incoming req see
system.mem_ctrls1.wrQLenPdf::15                 11371                       # What write queue length does an incoming req see
system.mem_ctrls1.wrQLenPdf::16                 12130                       # What write queue length does an incoming req see
system.mem_ctrls1.wrQLenPdf::17                 36736                       # What write queue length does an incoming req see
system.mem_ctrls1.wrQLenPdf::18                 42094                       # What write queue length does an incoming req see
system.mem_ctrls1.wrQLenPdf::19                 42923                       # What write queue length does an incoming req see
system.mem_ctrls1.wrQLenPdf::20                 42895                       # What write queue length does an incoming req see
system.mem_ctrls1.wrQLenPdf::21                 42935                       # What write queue length does an incoming req see
system.mem_ctrls1.wrQLenPdf::22                 42936                       # What write queue length does an incoming req see
system.mem_ctrls1.wrQLenPdf::23                 42926                       # What write queue length does an incoming req see
system.mem_ctrls1.wrQLenPdf::24                 42882                       # What write queue length does an incoming req see
system.mem_ctrls1.wrQLenPdf::25                 42848                       # What write queue length does an incoming req see
system.mem_ctrls1.wrQLenPdf::26                 42874                       # What write queue length does an incoming req see
system.mem_ctrls1.wrQLenPdf::27                 42860                       # What write queue length does an incoming req see
system.mem_ctrls1.wrQLenPdf::28                 42672                       # What write queue length does an incoming req see
system.mem_ctrls1.wrQLenPdf::29                 42480                       # What write queue length does an incoming req see
system.mem_ctrls1.wrQLenPdf::30                 42309                       # What write queue length does an incoming req see
system.mem_ctrls1.wrQLenPdf::31                 42196                       # What write queue length does an incoming req see
system.mem_ctrls1.wrQLenPdf::32                 42192                       # What write queue length does an incoming req see
system.mem_ctrls1.wrQLenPdf::33                   112                       # What write queue length does an incoming req see
system.mem_ctrls1.wrQLenPdf::34                    19                       # What write queue length does an incoming req see
system.mem_ctrls1.wrQLenPdf::35                     2                       # What write queue length does an incoming req see
system.mem_ctrls1.wrQLenPdf::36                     0                       # What write queue length does an incoming req see
system.mem_ctrls1.wrQLenPdf::37                     0                       # What write queue length does an incoming req see
system.mem_ctrls1.wrQLenPdf::38                     0                       # What write queue length does an incoming req see
system.mem_ctrls1.wrQLenPdf::39                     0                       # What write queue length does an incoming req see
system.mem_ctrls1.wrQLenPdf::40                     0                       # What write queue length does an incoming req see
system.mem_ctrls1.wrQLenPdf::41                     0                       # What write queue length does an incoming req see
system.mem_ctrls1.wrQLenPdf::42                     0                       # What write queue length does an incoming req see
system.mem_ctrls1.wrQLenPdf::43                     0                       # What write queue length does an incoming req see
system.mem_ctrls1.wrQLenPdf::44                     0                       # What write queue length does an incoming req see
system.mem_ctrls1.wrQLenPdf::45                     0                       # What write queue length does an incoming req see
system.mem_ctrls1.wrQLenPdf::46                     0                       # What write queue length does an incoming req see
system.mem_ctrls1.wrQLenPdf::47                     0                       # What write queue length does an incoming req see
system.mem_ctrls1.wrQLenPdf::48                     0                       # What write queue length does an incoming req see
system.mem_ctrls1.wrQLenPdf::49                     0                       # What write queue length does an incoming req see
system.mem_ctrls1.wrQLenPdf::50                     0                       # What write queue length does an incoming req see
system.mem_ctrls1.wrQLenPdf::51                     0                       # What write queue length does an incoming req see
system.mem_ctrls1.wrQLenPdf::52                     0                       # What write queue length does an incoming req see
system.mem_ctrls1.wrQLenPdf::53                     0                       # What write queue length does an incoming req see
system.mem_ctrls1.wrQLenPdf::54                     0                       # What write queue length does an incoming req see
system.mem_ctrls1.wrQLenPdf::55                     0                       # What write queue length does an incoming req see
system.mem_ctrls1.wrQLenPdf::56                     0                       # What write queue length does an incoming req see
system.mem_ctrls1.wrQLenPdf::57                     0                       # What write queue length does an incoming req see
system.mem_ctrls1.wrQLenPdf::58                     0                       # What write queue length does an incoming req see
system.mem_ctrls1.wrQLenPdf::59                     0                       # What write queue length does an incoming req see
system.mem_ctrls1.wrQLenPdf::60                     0                       # What write queue length does an incoming req see
system.mem_ctrls1.wrQLenPdf::61                     0                       # What write queue length does an incoming req see
system.mem_ctrls1.wrQLenPdf::62                     0                       # What write queue length does an incoming req see
system.mem_ctrls1.wrQLenPdf::63                     0                       # What write queue length does an incoming req see
system.mem_ctrls1.bytesPerActivate::samples       869940                       # Bytes accessed per row activation
system.mem_ctrls1.bytesPerActivate::mean   115.528188                       # Bytes accessed per row activation
system.mem_ctrls1.bytesPerActivate::gmean    88.713100                       # Bytes accessed per row activation
system.mem_ctrls1.bytesPerActivate::stdev   139.633830                       # Bytes accessed per row activation
system.mem_ctrls1.bytesPerActivate::0-127       599088     68.87%     68.87% # Bytes accessed per row activation
system.mem_ctrls1.bytesPerActivate::128-255       207531     23.86%     92.72% # Bytes accessed per row activation
system.mem_ctrls1.bytesPerActivate::256-383        23180      2.66%     95.39% # Bytes accessed per row activation
system.mem_ctrls1.bytesPerActivate::384-511        11495      1.32%     96.71% # Bytes accessed per row activation
system.mem_ctrls1.bytesPerActivate::512-639         9434      1.08%     97.79% # Bytes accessed per row activation
system.mem_ctrls1.bytesPerActivate::640-767         4916      0.57%     98.36% # Bytes accessed per row activation
system.mem_ctrls1.bytesPerActivate::768-895         3047      0.35%     98.71% # Bytes accessed per row activation
system.mem_ctrls1.bytesPerActivate::896-1023         2941      0.34%     99.04% # Bytes accessed per row activation
system.mem_ctrls1.bytesPerActivate::1024-1151         8308      0.96%    100.00% # Bytes accessed per row activation
system.mem_ctrls1.bytesPerActivate::total       869940                       # Bytes accessed per row activation
system.mem_ctrls1.rdPerTurnAround::samples        42175                       # Reads before turning the bus around for writes
system.mem_ctrls1.rdPerTurnAround::mean     20.627267                       # Reads before turning the bus around for writes
system.mem_ctrls1.rdPerTurnAround::stdev     9.727272                       # Reads before turning the bus around for writes
system.mem_ctrls1.rdPerTurnAround::0-15          6661     15.79%     15.79% # Reads before turning the bus around for writes
system.mem_ctrls1.rdPerTurnAround::16-31        32216     76.39%     92.18% # Reads before turning the bus around for writes
system.mem_ctrls1.rdPerTurnAround::32-47         2254      5.34%     97.52% # Reads before turning the bus around for writes
system.mem_ctrls1.rdPerTurnAround::48-63          642      1.52%     99.05% # Reads before turning the bus around for writes
system.mem_ctrls1.rdPerTurnAround::64-79          243      0.58%     99.62% # Reads before turning the bus around for writes
system.mem_ctrls1.rdPerTurnAround::80-95          105      0.25%     99.87% # Reads before turning the bus around for writes
system.mem_ctrls1.rdPerTurnAround::96-111           33      0.08%     99.95% # Reads before turning the bus around for writes
system.mem_ctrls1.rdPerTurnAround::112-127            8      0.02%     99.97% # Reads before turning the bus around for writes
system.mem_ctrls1.rdPerTurnAround::128-143            6      0.01%     99.98% # Reads before turning the bus around for writes
system.mem_ctrls1.rdPerTurnAround::144-159            3      0.01%     99.99% # Reads before turning the bus around for writes
system.mem_ctrls1.rdPerTurnAround::160-175            2      0.00%    100.00% # Reads before turning the bus around for writes
system.mem_ctrls1.rdPerTurnAround::208-223            1      0.00%    100.00% # Reads before turning the bus around for writes
system.mem_ctrls1.rdPerTurnAround::368-383            1      0.00%    100.00% # Reads before turning the bus around for writes
system.mem_ctrls1.rdPerTurnAround::total        42175                       # Reads before turning the bus around for writes
system.mem_ctrls1.wrPerTurnAround::samples        42175                       # Writes before turning the bus around for reads
system.mem_ctrls1.wrPerTurnAround::mean     16.606497                       # Writes before turning the bus around for reads
system.mem_ctrls1.wrPerTurnAround::gmean    16.578210                       # Writes before turning the bus around for reads
system.mem_ctrls1.wrPerTurnAround::stdev     0.991229                       # Writes before turning the bus around for reads
system.mem_ctrls1.wrPerTurnAround::16           30139     71.46%     71.46% # Writes before turning the bus around for reads
system.mem_ctrls1.wrPerTurnAround::17             402      0.95%     72.41% # Writes before turning the bus around for reads
system.mem_ctrls1.wrPerTurnAround::18            9933     23.55%     95.97% # Writes before turning the bus around for reads
system.mem_ctrls1.wrPerTurnAround::19            1515      3.59%     99.56% # Writes before turning the bus around for reads
system.mem_ctrls1.wrPerTurnAround::20             167      0.40%     99.95% # Writes before turning the bus around for reads
system.mem_ctrls1.wrPerTurnAround::21              17      0.04%    100.00% # Writes before turning the bus around for reads
system.mem_ctrls1.wrPerTurnAround::22               1      0.00%    100.00% # Writes before turning the bus around for reads
system.mem_ctrls1.wrPerTurnAround::23               1      0.00%    100.00% # Writes before turning the bus around for reads
system.mem_ctrls1.wrPerTurnAround::total        42175                       # Writes before turning the bus around for reads
system.mem_ctrls1.bytesReadDRAM              55678720                       # Total number of bytes read from DRAM
system.mem_ctrls1.bytesReadWrQ               12521472                       # Total number of bytes read from write queue
system.mem_ctrls1.bytesWritten               44824256                       # Total number of bytes written to DRAM
system.mem_ctrls1.bytesReadSys               68200192                       # Total read bytes from the system interface side
system.mem_ctrls1.bytesWrittenSys            46369408                       # Total written bytes from the system interface side
system.mem_ctrls1.avgRdBW                       51.25                       # Average DRAM read bandwidth in MiByte/s
system.mem_ctrls1.avgWrBW                       41.26                       # Average achieved write bandwidth in MiByte/s
system.mem_ctrls1.avgRdBWSys                    62.78                       # Average system read bandwidth in MiByte/s
system.mem_ctrls1.avgWrBWSys                    42.68                       # Average system write bandwidth in MiByte/s
system.mem_ctrls1.peakBW                     12800.00                       # Theoretical peak bandwidth in MiByte/s
system.mem_ctrls1.busUtil                        0.72                       # Data bus utilization in percentage
system.mem_ctrls1.busUtilRead                    0.40                       # Data bus utilization in percentage for reads
system.mem_ctrls1.busUtilWrite                   0.32                       # Data bus utilization in percentage for writes
system.mem_ctrls1.totGap                 1086363440500                       # Total gap between requests
system.mem_ctrls1.avgGap                    606856.10                       # Average gap between requests
system.mem_ctrls1.masterReadBytes::.ruby.dir_cntrl1     55678720                       # Per-master bytes read from memory
system.mem_ctrls1.masterWriteBytes::.ruby.dir_cntrl1     44824256                       # Per-master bytes write to memory
system.mem_ctrls1.masterReadRate::.ruby.dir_cntrl1 51252365.285908319056                       # Per-master bytes read from memory rate (Bytes/sec)
system.mem_ctrls1.masterWriteRate::.ruby.dir_cntrl1 41260810.991723008454                       # Per-master bytes write to memory rate (Bytes/sec)
system.mem_ctrls1.masterReadAccesses::.ruby.dir_cntrl1      1065628                       # Per-master read serviced memory accesses
system.mem_ctrls1.masterWriteAccesses::.ruby.dir_cntrl1       724522                       # Per-master write serviced memory accesses
system.mem_ctrls1.masterReadTotalLat::.ruby.dir_cntrl1  34538214451                       # Per-master read total memory access latency
system.mem_ctrls1.masterWriteTotalLat::.ruby.dir_cntrl1 26435848789498                       # Per-master write total memory access latency
system.mem_ctrls1.masterReadAvgLat::.ruby.dir_cntrl1     32411.14                       # Per-master read average memory access latency
system.mem_ctrls1.masterWriteAvgLat::.ruby.dir_cntrl1  36487296.16                       # Per-master write average memory access latency
system.mem_ctrls1.pageHitRate                   44.60                       # Row buffer hit rate, read and write combined
system.mem_ctrls1.rank1.actEnergy          3097967460                       # Energy for activate commands per rank (pJ)
system.mem_ctrls1.rank1.preEnergy          1646601165                       # Energy for precharge commands per rank (pJ)
system.mem_ctrls1.rank1.readEnergy         3140943120                       # Energy for read commands per rank (pJ)
system.mem_ctrls1.rank1.writeEnergy        1835931420                       # Energy for write commands per rank (pJ)
system.mem_ctrls1.rank1.refreshEnergy    85756416720.000015                       # Energy for refresh commands per rank (pJ)
system.mem_ctrls1.rank1.actBackEnergy    203091894900                       # Energy for active background per rank (pJ)
system.mem_ctrls1.rank1.preBackEnergy    246138988320                       # Energy for precharge background per rank (pJ)
system.mem_ctrls1.rank1.actPowerDownEnergy            0                       # Energy for active power-down per rank (pJ)
system.mem_ctrls1.rank1.prePowerDownEnergy            0                       # Energy for precharge power-down per rank (pJ)
system.mem_ctrls1.rank1.selfRefreshEnergy            0                       # Energy for self refresh per rank (pJ)
system.mem_ctrls1.rank1.totalEnergy      544708743105                       # Total energy per rank (pJ)
system.mem_ctrls1.rank1.averagePower       501.405411                       # Core power per rank (mW)
system.mem_ctrls1.rank1.totalIdleTime               0                       # Total Idle time Per DRAM Rank
system.mem_ctrls1.rank1.memoryStateTime::IDLE 637865268144                       # Time in different power states
system.mem_ctrls1.rank1.memoryStateTime::REF  36275980000                       # Time in different power states
system.mem_ctrls1.rank1.memoryStateTime::SREF            0                       # Time in different power states
system.mem_ctrls1.rank1.memoryStateTime::PRE_PDN            0                       # Time in different power states
system.mem_ctrls1.rank1.memoryStateTime::ACT 412222662856                       # Time in different power states
system.mem_ctrls1.rank1.memoryStateTime::ACT_PDN            0                       # Time in different power states
system.mem_ctrls1.rank0.actEnergy          3113418420                       # Energy for activate commands per rank (pJ)
system.mem_ctrls1.rank0.preEnergy          1654821135                       # Energy for precharge commands per rank (pJ)
system.mem_ctrls1.rank0.readEnergy         3070714080                       # Energy for read commands per rank (pJ)
system.mem_ctrls1.rank0.writeEnergy        1820046960                       # Energy for write commands per rank (pJ)
system.mem_ctrls1.rank0.refreshEnergy    85756416720.000015                       # Energy for refresh commands per rank (pJ)
system.mem_ctrls1.rank0.actBackEnergy    200906018430                       # Energy for active background per rank (pJ)
system.mem_ctrls1.rank0.preBackEnergy    247979726400                       # Energy for precharge background per rank (pJ)
system.mem_ctrls1.rank0.actPowerDownEnergy            0                       # Energy for active power-down per rank (pJ)
system.mem_ctrls1.rank0.prePowerDownEnergy            0                       # Energy for precharge power-down per rank (pJ)
system.mem_ctrls1.rank0.selfRefreshEnergy            0                       # Energy for self refresh per rank (pJ)
system.mem_ctrls1.rank0.totalEnergy      544301162145                       # Total energy per rank (pJ)
system.mem_ctrls1.rank0.averagePower       501.030232                       # Core power per rank (mW)
system.mem_ctrls1.rank0.totalIdleTime               0                       # Total Idle time Per DRAM Rank
system.mem_ctrls1.rank0.memoryStateTime::IDLE 642661825847                       # Time in different power states
system.mem_ctrls1.rank0.memoryStateTime::REF  36275980000                       # Time in different power states
system.mem_ctrls1.rank0.memoryStateTime::SREF            0                       # Time in different power states
system.mem_ctrls1.rank0.memoryStateTime::PRE_PDN            0                       # Time in different power states
system.mem_ctrls1.rank0.memoryStateTime::ACT 407426105153                       # Time in different power states
system.mem_ctrls1.rank0.memoryStateTime::ACT_PDN            0                       # Time in different power states
system.mem_ctrls1.power_state.pwrStateResidencyTicks::UNDEFINED 1086363911000                       # Cumulative time (in ticks) in various power states
system.cpu_voltage_domain.voltage                   1                       # Voltage in Volts

---------- End Simulation Statistics   ----------
