
---------- Begin Simulation Statistics ----------
final_tick                               100567997948001                       # Number of ticks from beginning of simulation (restored from checkpoints and never reset)
host_inst_rate                                1273879                       # Simulator instruction rate (inst/s)
host_mem_usage                                1574860                       # Number of bytes of host memory used
host_op_rate                                  1502186                       # Simulator op (including micro ops) rate (op/s)
host_seconds                                  5095.78                       # Real time elapsed on the host
host_tick_rate                              133803137                       # Simulator tick rate (ticks/s)
sim_freq                                 1000000000000                       # Frequency of simulated ticks
sim_insts                                  6491409459                       # Number of instructions simulated
sim_ops                                    7654816365                       # Number of ops (including micro ops) simulated
sim_seconds                                  0.681832                       # Number of seconds simulated
sim_ticks                                681831824501                       # Number of ticks simulated
system.cpu0.committedInsts                          0                       # Number of instructions committed
system.cpu0.dtb.rdAccesses                          0                       # TLB accesses on read requests
system.cpu0.dtb.rdMisses                            0                       # TLB misses on read requests
system.cpu0.dtb.wrAccesses                          0                       # TLB accesses on write requests
system.cpu0.dtb.wrMisses                            0                       # TLB misses on write requests
system.cpu0.itb.rdAccesses                          0                       # TLB accesses on read requests
system.cpu0.itb.rdMisses                            0                       # TLB misses on read requests
system.cpu0.itb.wrAccesses                          0                       # TLB accesses on write requests
system.cpu0.itb.wrMisses                            0                       # TLB misses on write requests
system.cpu0.kern.inst.arm                           0                       # number of arm instructions executed
system.cpu0.kern.inst.quiesce                       0                       # number of quiesce instructions executed
system.cpu0.numCoalescedMMIO                        0                       # number of coalesced memory mapped IO requests
system.cpu0.numCycles                               0                       # number of cpu cycles simulated
system.cpu0.numExitSignal                           0                       # exits due to signal delivery
system.cpu0.numHalt                                 0                       # number of VM exits due to wait for interrupt instructions
system.cpu0.numHypercalls                           0                       # number of hypercalls
system.cpu0.numIO                                   0                       # number of VM exits due to legacy IO
system.cpu0.numInterrupts                           0                       # number of interrupts delivered
system.cpu0.numMMIO                                 0                       # number of VM exits due to memory mapped IO
system.cpu0.numVMExits                              0                       # total number of KVM exits
system.cpu0.numVMHalfEntries                        0                       # number of KVM entries to finalize pending operations
system.cpu0.numWorkItemsCompleted                   0                       # number of work items this cpu completed
system.cpu0.numWorkItemsStarted                     0                       # number of work items this cpu started
system.cpu1.committedInsts                          0                       # Number of instructions committed
system.cpu1.dtb.rdAccesses                          0                       # TLB accesses on read requests
system.cpu1.dtb.rdMisses                            0                       # TLB misses on read requests
system.cpu1.dtb.wrAccesses                          0                       # TLB accesses on write requests
system.cpu1.dtb.wrMisses                            0                       # TLB misses on write requests
system.cpu1.itb.rdAccesses                          0                       # TLB accesses on read requests
system.cpu1.itb.rdMisses                            0                       # TLB misses on read requests
system.cpu1.itb.wrAccesses                          0                       # TLB accesses on write requests
system.cpu1.itb.wrMisses                            0                       # TLB misses on write requests
system.cpu1.kern.inst.arm                           0                       # number of arm instructions executed
system.cpu1.kern.inst.quiesce                       0                       # number of quiesce instructions executed
system.cpu1.numCoalescedMMIO                        0                       # number of coalesced memory mapped IO requests
system.cpu1.numCycles                               0                       # number of cpu cycles simulated
system.cpu1.numExitSignal                           0                       # exits due to signal delivery
system.cpu1.numHalt                                 0                       # number of VM exits due to wait for interrupt instructions
system.cpu1.numHypercalls                           0                       # number of hypercalls
system.cpu1.numIO                                   0                       # number of VM exits due to legacy IO
system.cpu1.numInterrupts                           0                       # number of interrupts delivered
system.cpu1.numMMIO                                 0                       # number of VM exits due to memory mapped IO
system.cpu1.numVMExits                              0                       # total number of KVM exits
system.cpu1.numVMHalfEntries                        0                       # number of KVM entries to finalize pending operations
system.cpu1.numWorkItemsCompleted                   0                       # number of work items this cpu completed
system.cpu1.numWorkItemsStarted                     0                       # number of work items this cpu started
system.cpu2.committedInsts                          0                       # Number of instructions committed
system.cpu2.dtb.rdAccesses                          0                       # TLB accesses on read requests
system.cpu2.dtb.rdMisses                            0                       # TLB misses on read requests
system.cpu2.dtb.wrAccesses                          0                       # TLB accesses on write requests
system.cpu2.dtb.wrMisses                            0                       # TLB misses on write requests
system.cpu2.itb.rdAccesses                          0                       # TLB accesses on read requests
system.cpu2.itb.rdMisses                            0                       # TLB misses on read requests
system.cpu2.itb.wrAccesses                          0                       # TLB accesses on write requests
system.cpu2.itb.wrMisses                            0                       # TLB misses on write requests
system.cpu2.kern.inst.arm                           0                       # number of arm instructions executed
system.cpu2.kern.inst.quiesce                       0                       # number of quiesce instructions executed
system.cpu2.numCoalescedMMIO                        0                       # number of coalesced memory mapped IO requests
system.cpu2.numCycles                               0                       # number of cpu cycles simulated
system.cpu2.numExitSignal                           0                       # exits due to signal delivery
system.cpu2.numHalt                                 0                       # number of VM exits due to wait for interrupt instructions
system.cpu2.numHypercalls                           0                       # number of hypercalls
system.cpu2.numIO                                   0                       # number of VM exits due to legacy IO
system.cpu2.numInterrupts                           0                       # number of interrupts delivered
system.cpu2.numMMIO                                 0                       # number of VM exits due to memory mapped IO
system.cpu2.numVMExits                              0                       # total number of KVM exits
system.cpu2.numVMHalfEntries                        0                       # number of KVM entries to finalize pending operations
system.cpu2.numWorkItemsCompleted                   0                       # number of work items this cpu completed
system.cpu2.numWorkItemsStarted                     0                       # number of work items this cpu started
system.cpu3.committedInsts                          0                       # Number of instructions committed
system.cpu3.dtb.rdAccesses                          0                       # TLB accesses on read requests
system.cpu3.dtb.rdMisses                            0                       # TLB misses on read requests
system.cpu3.dtb.wrAccesses                          0                       # TLB accesses on write requests
system.cpu3.dtb.wrMisses                            0                       # TLB misses on write requests
system.cpu3.itb.rdAccesses                          0                       # TLB accesses on read requests
system.cpu3.itb.rdMisses                            0                       # TLB misses on read requests
system.cpu3.itb.wrAccesses                          0                       # TLB accesses on write requests
system.cpu3.itb.wrMisses                            0                       # TLB misses on write requests
system.cpu3.kern.inst.arm                           0                       # number of arm instructions executed
system.cpu3.kern.inst.quiesce                       0                       # number of quiesce instructions executed
system.cpu3.numCoalescedMMIO                        0                       # number of coalesced memory mapped IO requests
system.cpu3.numCycles                               0                       # number of cpu cycles simulated
system.cpu3.numExitSignal                           0                       # exits due to signal delivery
system.cpu3.numHalt                                 0                       # number of VM exits due to wait for interrupt instructions
system.cpu3.numHypercalls                           0                       # number of hypercalls
system.cpu3.numIO                                   0                       # number of VM exits due to legacy IO
system.cpu3.numInterrupts                           0                       # number of interrupts delivered
system.cpu3.numMMIO                                 0                       # number of VM exits due to memory mapped IO
system.cpu3.numVMExits                              0                       # total number of KVM exits
system.cpu3.numVMHalfEntries                        0                       # number of KVM entries to finalize pending operations
system.cpu3.numWorkItemsCompleted                   0                       # number of work items this cpu completed
system.cpu3.numWorkItemsStarted                     0                       # number of work items this cpu started
system.pc.south_bridge.ide.disks.dma_read_bytes            0                       # Number of bytes transfered via DMA reads (not PRD).
system.pc.south_bridge.ide.disks.dma_read_full_pages            0                       # Number of full page size DMA reads (not PRD).
system.pc.south_bridge.ide.disks.dma_read_txs            0                       # Number of DMA read transactions (not PRD).
system.pc.south_bridge.ide.disks.dma_write_bytes            0                       # Number of bytes transfered via DMA writes.
system.pc.south_bridge.ide.disks.dma_write_full_pages            0                       # Number of full page size DMA writes.
system.pc.south_bridge.ide.disks.dma_write_txs            0                       # Number of DMA write transactions.
system.ruby.Directory_Controller.I.allocTBE |      579524     25.49%     25.49% |      573922     25.25%     50.74% |      559183     24.60%     75.34% |      560679     24.66%    100.00%
system.ruby.Directory_Controller.I.allocTBE::total      2273308                      
system.ruby.Directory_Controller.I.deallocTBE |      578912     25.49%     25.49% |      573305     25.25%     50.74% |      558542     24.60%     75.34% |      560092     24.66%    100.00%
system.ruby.Directory_Controller.I.deallocTBE::total      2270851                      
system.ruby.Directory_Controller.I_GetML1C1C1_0.Stallreqto_in |         106     25.30%     25.30% |          91     21.72%     47.02% |         117     27.92%     74.94% |         105     25.06%    100.00%
system.ruby.Directory_Controller.I_GetML1C1C1_0.Stallreqto_in::total          419                      
system.ruby.Directory_Controller.I_GetSL1C1C1_0.Stallreqto_in |         674     21.30%     21.30% |         781     24.68%     45.99% |         959     30.31%     76.30% |         750     23.70%    100.00%
system.ruby.Directory_Controller.I_GetSL1C1C1_0.Stallreqto_in::total         3164                      
system.ruby.Directory_Controller.M.allocTBE |      283274     24.86%     24.86% |      286728     25.17%     50.03% |      283849     24.91%     74.94% |      285482     25.06%    100.00%
system.ruby.Directory_Controller.M.allocTBE::total      1139333                      
system.ruby.Directory_Controller.M.deallocTBE |      283403     24.86%     24.86% |      286860     25.17%     50.03% |      283996     24.91%     74.94% |      285615     25.06%    100.00%
system.ruby.Directory_Controller.M.deallocTBE::total      1139874                      
system.ruby.Directory_Controller.M_GetM.Progress |       13943     24.03%     24.03% |       14484     24.96%     48.99% |       14537     25.05%     74.05% |       15058     25.95%    100.00%
system.ruby.Directory_Controller.M_GetM.Progress::total        58022                      
system.ruby.Directory_Controller.M_GetM.Stallreqto_in |          11      1.16%      1.16% |          16      1.69%      2.85% |          16      1.69%      4.54% |         905     95.46%    100.00%
system.ruby.Directory_Controller.M_GetM.Stallreqto_in::total          948                      
system.ruby.Directory_Controller.M_GetS.Progress |       14980     24.00%     24.00% |       15564     24.94%     48.94% |       16452     26.36%     75.30% |       15416     24.70%    100.00%
system.ruby.Directory_Controller.M_GetS.Progress::total        62412                      
system.ruby.Directory_Controller.M_GetS.Stallreqto_in |         132      6.25%      6.25% |         166      7.86%     14.12% |         875     41.45%     55.57% |         938     44.43%    100.00%
system.ruby.Directory_Controller.M_GetS.Stallreqto_in::total         2111                      
system.ruby.Directory_Controller.M_GetS_WBL1C1C1_0.Stallreqto_in |        3545     20.91%     20.91% |        4275     25.22%     46.12% |        4559     26.89%     73.02% |        4575     26.98%    100.00%
system.ruby.Directory_Controller.M_GetS_WBL1C1C1_0.Stallreqto_in::total        16954                      
system.ruby.Directory_Controller.M_PutML1C1C1_0.Stallreqto_in |           0      0.00%      0.00% |           2     28.57%     28.57% |           3     42.86%     71.43% |           2     28.57%    100.00%
system.ruby.Directory_Controller.M_PutML1C1C1_0.Stallreqto_in::total            7                      
system.ruby.Directory_Controller.Progress |       30221     24.34%     24.34% |       30171     24.30%     48.63% |       31999     25.77%     74.40% |       31791     25.60%    100.00%
system.ruby.Directory_Controller.Progress::total       124182                      
system.ruby.Directory_Controller.S.allocTBE |      716209     24.53%     24.53% |      748591     25.64%     50.17% |      728320     24.95%     75.12% |      726447     24.88%    100.00%
system.ruby.Directory_Controller.S.allocTBE::total      2919567                      
system.ruby.Directory_Controller.S.deallocTBE |      716692     24.53%     24.53% |      749075     25.64%     50.17% |      728814     24.95%     75.12% |      726901     24.88%    100.00%
system.ruby.Directory_Controller.S.deallocTBE::total      2921482                      
system.ruby.Directory_Controller.S_GetM.Progress |        1298     34.63%     34.63% |         123      3.28%     37.91% |        1010     26.95%     64.86% |        1317     35.14%    100.00%
system.ruby.Directory_Controller.S_GetM.Progress::total         3748                      
system.ruby.Directory_Controller.S_GetM.Stallreqto_in |        1105     16.69%     16.69% |        1366     20.63%     37.32% |        1410     21.29%     58.61% |        2741     41.39%    100.00%
system.ruby.Directory_Controller.S_GetM.Stallreqto_in::total         6622                      
system.ruby.Directory_Controller.S_GetM.allocTBE |       15272     24.31%     24.31% |       15589     24.82%     49.13% |       16547     26.34%     75.48% |       15401     24.52%    100.00%
system.ruby.Directory_Controller.S_GetM.allocTBE::total        62809                      
system.ruby.Directory_Controller.S_GetM.deallocTBE |       15272     24.31%     24.31% |       15589     24.82%     49.13% |       16547     26.34%     75.48% |       15401     24.52%    100.00%
system.ruby.Directory_Controller.S_GetM.deallocTBE::total        62809                      
system.ruby.Directory_Controller.S_GetML1C1C1_0.Stallreqto_in |        1769     18.22%     18.22% |        2218     22.85%     41.07% |        2129     21.93%     63.00% |        3592     37.00%    100.00%
system.ruby.Directory_Controller.S_GetML1C1C1_0.Stallreqto_in::total         9708                      
system.ruby.Directory_Controller.S_GetML1C1C1_1.Stallreqto_in |           2     18.18%     18.18% |           0      0.00%     18.18% |           5     45.45%     63.64% |           4     36.36%    100.00%
system.ruby.Directory_Controller.S_GetML1C1C1_1.Stallreqto_in::total           11                      
system.ruby.Directory_Controller.S_GetML1C1C1_2.Stallreqto_in |           0      0.00%      0.00% |           0      0.00%      0.00% |           0      0.00%      0.00% |         338    100.00%    100.00%
system.ruby.Directory_Controller.S_GetML1C1C1_2.Stallreqto_in::total          338                      
system.ruby.Directory_Controller.S_GetSL1C1C1_0.Stallreqto_in |         169      9.11%      9.11% |         136      7.33%     16.43% |         547     29.47%     45.91% |        1004     54.09%    100.00%
system.ruby.Directory_Controller.S_GetSL1C1C1_0.Stallreqto_in::total         1856                      
system.ruby.Directory_Controller.Stallreqto_in |        7513     17.83%     17.83% |        9051     21.48%     39.31% |       10620     25.20%     64.51% |       14954     35.49%    100.00%
system.ruby.Directory_Controller.Stallreqto_in::total        42138                      
system.ruby.Directory_Controller.allocTBE |     1594279     24.93%     24.93% |     1624830     25.41%     50.34% |     1587899     24.83%     75.17% |     1588009     24.83%    100.00%
system.ruby.Directory_Controller.allocTBE::total      6395017                      
system.ruby.Directory_Controller.deallocTBE |     1594279     24.93%     24.93% |     1624829     25.41%     50.34% |     1587899     24.83%     75.17% |     1588009     24.83%    100.00%
system.ruby.Directory_Controller.deallocTBE::total      6395016                      
system.ruby.IFETCH.hit_latency_hist_seqr::bucket_size            1                      
system.ruby.IFETCH.hit_latency_hist_seqr::max_bucket            9                      
system.ruby.IFETCH.hit_latency_hist_seqr::samples   1997377173                      
system.ruby.IFETCH.hit_latency_hist_seqr |  1997377173    100.00%    100.00% |           0      0.00%    100.00% |           0      0.00%    100.00% |           0      0.00%    100.00% |           0      0.00%    100.00% |           0      0.00%    100.00% |           0      0.00%    100.00% |           0      0.00%    100.00% |           0      0.00%    100.00% |           0      0.00%    100.00%
system.ruby.IFETCH.hit_latency_hist_seqr::total   1997377173                      
system.ruby.IFETCH.latency_hist_seqr::bucket_size            1                      
system.ruby.IFETCH.latency_hist_seqr::max_bucket            9                      
system.ruby.IFETCH.latency_hist_seqr::samples   1997778089                      
system.ruby.IFETCH.latency_hist_seqr     |  1997778089    100.00%    100.00% |           0      0.00%    100.00% |           0      0.00%    100.00% |           0      0.00%    100.00% |           0      0.00%    100.00% |           0      0.00%    100.00% |           0      0.00%    100.00% |           0      0.00%    100.00% |           0      0.00%    100.00% |           0      0.00%    100.00%
system.ruby.IFETCH.latency_hist_seqr::total   1997778089                      
system.ruby.IFETCH.miss_latency_hist_seqr::bucket_size            1                      
system.ruby.IFETCH.miss_latency_hist_seqr::max_bucket            9                      
system.ruby.IFETCH.miss_latency_hist_seqr::samples       400916                      
system.ruby.IFETCH.miss_latency_hist_seqr |      400916    100.00%    100.00% |           0      0.00%    100.00% |           0      0.00%    100.00% |           0      0.00%    100.00% |           0      0.00%    100.00% |           0      0.00%    100.00% |           0      0.00%    100.00% |           0      0.00%    100.00% |           0      0.00%    100.00% |           0      0.00%    100.00%
system.ruby.IFETCH.miss_latency_hist_seqr::total       400916                      
system.ruby.L1Cache_Controller.I.allocI_load |      586572     24.86%     24.86% |      605882     25.68%     50.53% |      572071     24.24%     74.78% |      595169     25.22%    100.00%
system.ruby.L1Cache_Controller.I.allocI_load::total      2359694                      
system.ruby.L1Cache_Controller.I.allocI_store |      133404     22.28%     22.28% |      153468     25.63%     47.92% |      165265     27.61%     75.52% |      146537     24.48%    100.00%
system.ruby.L1Cache_Controller.I.allocI_store::total       598674                      
system.ruby.L1Cache_Controller.I.deallocfwdfrom_in |      718952     24.34%     24.34% |      758332     25.67%     50.00% |      736340     24.92%     74.93% |      740697     25.07%    100.00%
system.ruby.L1Cache_Controller.I.deallocfwdfrom_in::total      2954321                      
system.ruby.L1Cache_Controller.I_store.Progress |        2153     46.83%     46.83% |         862     18.75%     65.59% |         884     19.23%     84.82% |         698     15.18%    100.00%
system.ruby.L1Cache_Controller.I_store.Progress::total         4597                      
system.ruby.L1Cache_Controller.I_store.Stallfwdfrom_in |         334     23.70%     23.70% |         366     25.98%     49.68% |         323     22.92%     72.60% |         386     27.40%    100.00%
system.ruby.L1Cache_Controller.I_store.Stallfwdfrom_in::total         1409                      
system.ruby.L1Cache_Controller.M.MloadMEvent |    17936708     24.49%     24.49% |    18527855     25.30%     49.80% |    17831786     24.35%     74.15% |    18932264     25.85%    100.00%
system.ruby.L1Cache_Controller.M.MloadMEvent::total     73228613                      
system.ruby.L1Cache_Controller.M.MstoreMEvent |    14208006     24.23%     24.23% |    15269866     26.04%     50.27% |    14085440     24.02%     74.29% |    15078431     25.71%    100.00%
system.ruby.L1Cache_Controller.M.MstoreMEvent::total     58641743                      
system.ruby.L1Cache_Controller.M.allocTBE |      268702     23.58%     23.58% |      294672     25.86%     49.45% |      291987     25.63%     75.08% |      283966     24.92%    100.00%
system.ruby.L1Cache_Controller.M.allocTBE::total      1139327                      
system.ruby.L1Cache_Controller.M.externalstoreMrespfrom_in |      268860     23.59%     23.59% |      294822     25.86%     49.45% |      292081     25.62%     75.08% |      284105     24.92%    100.00%
system.ruby.L1Cache_Controller.M.externalstoreMrespfrom_in::total      1139868                      
system.ruby.L1Cache_Controller.M_evict.Stallmandatory_in |        7047     25.96%     25.96% |        7874     29.00%     54.96% |        7084     26.09%     81.05% |        5144     18.95%    100.00%
system.ruby.L1Cache_Controller.M_evict.Stallmandatory_in::total        27149                      
system.ruby.L1Cache_Controller.MloadMEvent |    17936708     24.49%     24.49% |    18527855     25.30%     49.80% |    17831786     24.35%     74.15% |    18932264     25.85%    100.00%
system.ruby.L1Cache_Controller.MloadMEvent::total     73228613                      
system.ruby.L1Cache_Controller.MstoreMEvent |    14208006     24.23%     24.23% |    15269866     26.04%     50.27% |    14085440     24.02%     74.29% |    15078431     25.71%    100.00%
system.ruby.L1Cache_Controller.MstoreMEvent::total     58641743                      
system.ruby.L1Cache_Controller.Progress  |      154366     25.28%     25.28% |      154371     25.28%     50.56% |      146053     23.92%     74.48% |      155870     25.52%    100.00%
system.ruby.L1Cache_Controller.Progress::total       610660                      
system.ruby.L1Cache_Controller.S.SloadSEvent |   561951992     24.35%     24.35% |   590494184     25.59%     49.94% |   568197599     24.62%     74.57% |   586802911     25.43%    100.00%
system.ruby.L1Cache_Controller.S.SloadSEvent::total   2307446686                      
system.ruby.L1Cache_Controller.S.allocTBE |      605298     25.03%     25.03% |      623619     25.78%     50.81% |      584195     24.15%     74.97% |      605483     25.03%    100.00%
system.ruby.L1Cache_Controller.S.allocTBE::total      2418595                      
system.ruby.L1Cache_Controller.S.deallocTBE |       19592     31.39%     31.39% |       18605     29.81%     61.21% |       13026     20.87%     82.08% |       11184     17.92%    100.00%
system.ruby.L1Cache_Controller.S.deallocTBE::total        62407                      
system.ruby.L1Cache_Controller.S.externalloadSrespfrom_in |      586572     24.86%     24.86% |      605882     25.68%     50.53% |      572071     24.24%     74.78% |      595168     25.22%    100.00%
system.ruby.L1Cache_Controller.S.externalloadSrespfrom_in::total      2359693                      
system.ruby.L1Cache_Controller.S_evict.Progress |           0      0.00%      0.00% |           5    100.00%    100.00% |           0      0.00%    100.00% |           0      0.00%    100.00%
system.ruby.L1Cache_Controller.S_evict.Progress::total            5                      
system.ruby.L1Cache_Controller.S_evict.Stallmandatory_in |        1212     27.13%     27.13% |        1367     30.60%     57.72% |        1185     26.52%     84.24% |         704     15.76%    100.00%
system.ruby.L1Cache_Controller.S_evict.Stallmandatory_in::total         4468                      
system.ruby.L1Cache_Controller.S_evict_x_I.Progress |           1     16.67%     16.67% |           2     33.33%     50.00% |           3     50.00%    100.00% |           0      0.00%    100.00%
system.ruby.L1Cache_Controller.S_evict_x_I.Progress::total            6                      
system.ruby.L1Cache_Controller.S_evict_x_I.Stallmandatory_in |           3     14.29%     14.29% |           7     33.33%     47.62% |          11     52.38%    100.00% |           0      0.00%    100.00%
system.ruby.L1Cache_Controller.S_evict_x_I.Stallmandatory_in::total           21                      
system.ruby.L1Cache_Controller.S_store.Progress |      152212     25.12%     25.12% |      153502     25.33%     50.44% |      145166     23.95%     74.40% |      155172     25.60%    100.00%
system.ruby.L1Cache_Controller.S_store.Progress::total       606052                      
system.ruby.L1Cache_Controller.S_store.Stallfwdfrom_in |         112     27.79%     27.79% |         119     29.53%     57.32% |          97     24.07%     81.39% |          75     18.61%    100.00%
system.ruby.L1Cache_Controller.S_store.Stallfwdfrom_in::total          403                      
system.ruby.L1Cache_Controller.SloadSEvent |   561951992     24.35%     24.35% |   590494184     25.59%     49.94% |   568197599     24.62%     74.57% |   586802911     25.43%    100.00%
system.ruby.L1Cache_Controller.SloadSEvent::total   2307446686                      
system.ruby.L1Cache_Controller.Stallfwdfrom_in |         446     24.61%     24.61% |         485     26.77%     51.38% |         420     23.18%     74.56% |         461     25.44%    100.00%
system.ruby.L1Cache_Controller.Stallfwdfrom_in::total         1812                      
system.ruby.L1Cache_Controller.Stallmandatory_in |        8262     26.11%     26.11% |        9248     29.23%     55.34% |        8280     26.17%     81.52% |        5848     18.48%    100.00%
system.ruby.L1Cache_Controller.Stallmandatory_in::total        31638                      
system.ruby.L1Cache_Controller.allocI_load |      586572     24.86%     24.86% |      605882     25.68%     50.53% |      572071     24.24%     74.78% |      595169     25.22%    100.00%
system.ruby.L1Cache_Controller.allocI_load::total      2359694                      
system.ruby.L1Cache_Controller.allocI_store |      133404     22.28%     22.28% |      153468     25.63%     47.92% |      165265     27.61%     75.52% |      146537     24.48%    100.00%
system.ruby.L1Cache_Controller.allocI_store::total       598674                      
system.ruby.L1Cache_Controller.allocTBE  |      874000     24.56%     24.56% |      918291     25.81%     50.37% |      876182     24.63%     75.00% |      889449     25.00%    100.00%
system.ruby.L1Cache_Controller.allocTBE::total      3557922                      
system.ruby.L1Cache_Controller.deallocTBE |       19592     31.39%     31.39% |       18605     29.81%     61.21% |       13026     20.87%     82.08% |       11184     17.92%    100.00%
system.ruby.L1Cache_Controller.deallocTBE::total        62407                      
system.ruby.L1Cache_Controller.deallocfwdfrom_in |      718952     24.34%     24.34% |      758332     25.67%     50.00% |      736340     24.92%     74.93% |      740697     25.07%    100.00%
system.ruby.L1Cache_Controller.deallocfwdfrom_in::total      2954321                      
system.ruby.L1Cache_Controller.externalloadSrespfrom_in |      586572     24.86%     24.86% |      605882     25.68%     50.53% |      572071     24.24%     74.78% |      595168     25.22%    100.00%
system.ruby.L1Cache_Controller.externalloadSrespfrom_in::total      2359693                      
system.ruby.L1Cache_Controller.externalstoreMrespfrom_in |      268860     23.59%     23.59% |      294822     25.86%     49.45% |      292081     25.62%     75.08% |      284105     24.92%    100.00%
system.ruby.L1Cache_Controller.externalstoreMrespfrom_in::total      1139868                      
system.ruby.LD.hit_latency_hist_seqr::bucket_size            1                      
system.ruby.LD.hit_latency_hist_seqr::max_bucket            9                      
system.ruby.LD.hit_latency_hist_seqr::samples    383298126                      
system.ruby.LD.hit_latency_hist_seqr     |   383298126    100.00%    100.00% |           0      0.00%    100.00% |           0      0.00%    100.00% |           0      0.00%    100.00% |           0      0.00%    100.00% |           0      0.00%    100.00% |           0      0.00%    100.00% |           0      0.00%    100.00% |           0      0.00%    100.00% |           0      0.00%    100.00%
system.ruby.LD.hit_latency_hist_seqr::total    383298126                      
system.ruby.LD.latency_hist_seqr::bucket_size            1                      
system.ruby.LD.latency_hist_seqr::max_bucket            9                      
system.ruby.LD.latency_hist_seqr::samples    385256903                      
system.ruby.LD.latency_hist_seqr         |   385256903    100.00%    100.00% |           0      0.00%    100.00% |           0      0.00%    100.00% |           0      0.00%    100.00% |           0      0.00%    100.00% |           0      0.00%    100.00% |           0      0.00%    100.00% |           0      0.00%    100.00% |           0      0.00%    100.00% |           0      0.00%    100.00%
system.ruby.LD.latency_hist_seqr::total     385256903                      
system.ruby.LD.miss_latency_hist_seqr::bucket_size            1                      
system.ruby.LD.miss_latency_hist_seqr::max_bucket            9                      
system.ruby.LD.miss_latency_hist_seqr::samples      1958777                      
system.ruby.LD.miss_latency_hist_seqr    |     1958777    100.00%    100.00% |           0      0.00%    100.00% |           0      0.00%    100.00% |           0      0.00%    100.00% |           0      0.00%    100.00% |           0      0.00%    100.00% |           0      0.00%    100.00% |           0      0.00%    100.00% |           0      0.00%    100.00% |           0      0.00%    100.00%
system.ruby.LD.miss_latency_hist_seqr::total      1958777                      
system.ruby.Locked_RMW_Read.hit_latency_hist_seqr::bucket_size            1                      
system.ruby.Locked_RMW_Read.hit_latency_hist_seqr::max_bucket            9                      
system.ruby.Locked_RMW_Read.hit_latency_hist_seqr::samples      2087959                      
system.ruby.Locked_RMW_Read.hit_latency_hist_seqr |     2087959    100.00%    100.00% |           0      0.00%    100.00% |           0      0.00%    100.00% |           0      0.00%    100.00% |           0      0.00%    100.00% |           0      0.00%    100.00% |           0      0.00%    100.00% |           0      0.00%    100.00% |           0      0.00%    100.00% |           0      0.00%    100.00%
system.ruby.Locked_RMW_Read.hit_latency_hist_seqr::total      2087959                      
system.ruby.Locked_RMW_Read.latency_hist_seqr::bucket_size            1                      
system.ruby.Locked_RMW_Read.latency_hist_seqr::max_bucket            9                      
system.ruby.Locked_RMW_Read.latency_hist_seqr::samples      2186592                      
system.ruby.Locked_RMW_Read.latency_hist_seqr |     2186592    100.00%    100.00% |           0      0.00%    100.00% |           0      0.00%    100.00% |           0      0.00%    100.00% |           0      0.00%    100.00% |           0      0.00%    100.00% |           0      0.00%    100.00% |           0      0.00%    100.00% |           0      0.00%    100.00% |           0      0.00%    100.00%
system.ruby.Locked_RMW_Read.latency_hist_seqr::total      2186592                      
system.ruby.Locked_RMW_Read.miss_latency_hist_seqr::bucket_size            1                      
system.ruby.Locked_RMW_Read.miss_latency_hist_seqr::max_bucket            9                      
system.ruby.Locked_RMW_Read.miss_latency_hist_seqr::samples        98633                      
system.ruby.Locked_RMW_Read.miss_latency_hist_seqr |       98633    100.00%    100.00% |           0      0.00%    100.00% |           0      0.00%    100.00% |           0      0.00%    100.00% |           0      0.00%    100.00% |           0      0.00%    100.00% |           0      0.00%    100.00% |           0      0.00%    100.00% |           0      0.00%    100.00% |           0      0.00%    100.00%
system.ruby.Locked_RMW_Read.miss_latency_hist_seqr::total        98633                      
system.ruby.Locked_RMW_Write.hit_latency_hist_seqr::bucket_size            1                      
system.ruby.Locked_RMW_Write.hit_latency_hist_seqr::max_bucket            9                      
system.ruby.Locked_RMW_Write.hit_latency_hist_seqr::samples      2186592                      
system.ruby.Locked_RMW_Write.hit_latency_hist_seqr |     2186592    100.00%    100.00% |           0      0.00%    100.00% |           0      0.00%    100.00% |           0      0.00%    100.00% |           0      0.00%    100.00% |           0      0.00%    100.00% |           0      0.00%    100.00% |           0      0.00%    100.00% |           0      0.00%    100.00% |           0      0.00%    100.00%
system.ruby.Locked_RMW_Write.hit_latency_hist_seqr::total      2186592                      
system.ruby.Locked_RMW_Write.latency_hist_seqr::bucket_size            1                      
system.ruby.Locked_RMW_Write.latency_hist_seqr::max_bucket            9                      
system.ruby.Locked_RMW_Write.latency_hist_seqr::samples      2186592                      
system.ruby.Locked_RMW_Write.latency_hist_seqr |     2186592    100.00%    100.00% |           0      0.00%    100.00% |           0      0.00%    100.00% |           0      0.00%    100.00% |           0      0.00%    100.00% |           0      0.00%    100.00% |           0      0.00%    100.00% |           0      0.00%    100.00% |           0      0.00%    100.00% |           0      0.00%    100.00%
system.ruby.Locked_RMW_Write.latency_hist_seqr::total      2186592                      
system.ruby.RMW_Read.hit_latency_hist_seqr::bucket_size            1                      
system.ruby.RMW_Read.hit_latency_hist_seqr::max_bucket            9                      
system.ruby.RMW_Read.hit_latency_hist_seqr::samples      3209953                      
system.ruby.RMW_Read.hit_latency_hist_seqr |     3209953    100.00%    100.00% |           0      0.00%    100.00% |           0      0.00%    100.00% |           0      0.00%    100.00% |           0      0.00%    100.00% |           0      0.00%    100.00% |           0      0.00%    100.00% |           0      0.00%    100.00% |           0      0.00%    100.00% |           0      0.00%    100.00%
system.ruby.RMW_Read.hit_latency_hist_seqr::total      3209953                      
system.ruby.RMW_Read.latency_hist_seqr::bucket_size            1                      
system.ruby.RMW_Read.latency_hist_seqr::max_bucket            9                      
system.ruby.RMW_Read.latency_hist_seqr::samples      3228256                      
system.ruby.RMW_Read.latency_hist_seqr   |     3228256    100.00%    100.00% |           0      0.00%    100.00% |           0      0.00%    100.00% |           0      0.00%    100.00% |           0      0.00%    100.00% |           0      0.00%    100.00% |           0      0.00%    100.00% |           0      0.00%    100.00% |           0      0.00%    100.00% |           0      0.00%    100.00%
system.ruby.RMW_Read.latency_hist_seqr::total      3228256                      
system.ruby.RMW_Read.miss_latency_hist_seqr::bucket_size            1                      
system.ruby.RMW_Read.miss_latency_hist_seqr::max_bucket            9                      
system.ruby.RMW_Read.miss_latency_hist_seqr::samples        18303                      
system.ruby.RMW_Read.miss_latency_hist_seqr |       18303    100.00%    100.00% |           0      0.00%    100.00% |           0      0.00%    100.00% |           0      0.00%    100.00% |           0      0.00%    100.00% |           0      0.00%    100.00% |           0      0.00%    100.00% |           0      0.00%    100.00% |           0      0.00%    100.00% |           0      0.00%    100.00%
system.ruby.RMW_Read.miss_latency_hist_seqr::total        18303                      
system.ruby.ST.hit_latency_hist_seqr::bucket_size            1                      
system.ruby.ST.hit_latency_hist_seqr::max_bucket            9                      
system.ruby.ST.hit_latency_hist_seqr::samples     51157239                      
system.ruby.ST.hit_latency_hist_seqr     |    51157239    100.00%    100.00% |           0      0.00%    100.00% |           0      0.00%    100.00% |           0      0.00%    100.00% |           0      0.00%    100.00% |           0      0.00%    100.00% |           0      0.00%    100.00% |           0      0.00%    100.00% |           0      0.00%    100.00% |           0      0.00%    100.00%
system.ruby.ST.hit_latency_hist_seqr::total     51157239                      
system.ruby.ST.latency_hist_seqr::bucket_size            1                      
system.ruby.ST.latency_hist_seqr::max_bucket            9                      
system.ruby.ST.latency_hist_seqr::samples     52180171                      
system.ruby.ST.latency_hist_seqr         |    52180171    100.00%    100.00% |           0      0.00%    100.00% |           0      0.00%    100.00% |           0      0.00%    100.00% |           0      0.00%    100.00% |           0      0.00%    100.00% |           0      0.00%    100.00% |           0      0.00%    100.00% |           0      0.00%    100.00% |           0      0.00%    100.00%
system.ruby.ST.latency_hist_seqr::total      52180171                      
system.ruby.ST.miss_latency_hist_seqr::bucket_size            1                      
system.ruby.ST.miss_latency_hist_seqr::max_bucket            9                      
system.ruby.ST.miss_latency_hist_seqr::samples      1022932                      
system.ruby.ST.miss_latency_hist_seqr    |     1022932    100.00%    100.00% |           0      0.00%    100.00% |           0      0.00%    100.00% |           0      0.00%    100.00% |           0      0.00%    100.00% |           0      0.00%    100.00% |           0      0.00%    100.00% |           0      0.00%    100.00% |           0      0.00%    100.00% |           0      0.00%    100.00%
system.ruby.ST.miss_latency_hist_seqr::total      1022932                      
system.ruby.dir_cntrl0.fwdFrom.avg_buf_msgs     0.003305                       # Average number of messages in buffer
system.ruby.dir_cntrl0.fwdFrom.avg_stall_time  2999.985003                       # Average number of cycles messages are stalled in this MB
system.ruby.dir_cntrl0.reqTo.avg_buf_msgs     0.001213                       # Average number of messages in buffer
system.ruby.dir_cntrl0.reqTo.avg_stall_time  5081.555800                       # Average number of cycles messages are stalled in this MB
system.ruby.dir_cntrl0.requestToMemory.avg_buf_msgs     0.000816                       # Average number of messages in buffer
system.ruby.dir_cntrl0.requestToMemory.avg_stall_time   499.999765                       # Average number of cycles messages are stalled in this MB
system.ruby.dir_cntrl0.respFrom.avg_buf_msgs     0.003709                       # Average number of messages in buffer
system.ruby.dir_cntrl0.respFrom.avg_stall_time  2999.998161                       # Average number of cycles messages are stalled in this MB
system.ruby.dir_cntrl0.respTo.avg_buf_msgs     0.000033                       # Average number of messages in buffer
system.ruby.dir_cntrl0.respTo.avg_stall_time  6057.602881                       # Average number of cycles messages are stalled in this MB
system.ruby.dir_cntrl0.responseFromMemory.avg_buf_msgs     0.000817                       # Average number of messages in buffer
system.ruby.dir_cntrl0.responseFromMemory.avg_stall_time   499.999696                       # Average number of cycles messages are stalled in this MB
system.ruby.dir_cntrl1.fwdFrom.avg_buf_msgs     0.003372                       # Average number of messages in buffer
system.ruby.dir_cntrl1.fwdFrom.avg_stall_time  2999.934945                       # Average number of cycles messages are stalled in this MB
system.ruby.dir_cntrl1.reqTo.avg_buf_msgs     0.001246                       # Average number of messages in buffer
system.ruby.dir_cntrl1.reqTo.avg_stall_time  5055.362293                       # Average number of cycles messages are stalled in this MB
system.ruby.dir_cntrl1.requestToMemory.avg_buf_msgs     0.000829                       # Average number of messages in buffer
system.ruby.dir_cntrl1.requestToMemory.avg_stall_time   499.999995                       # Average number of cycles messages are stalled in this MB
system.ruby.dir_cntrl1.respFrom.avg_buf_msgs     0.003777                       # Average number of messages in buffer
system.ruby.dir_cntrl1.respFrom.avg_stall_time  2999.999586                       # Average number of cycles messages are stalled in this MB
system.ruby.dir_cntrl1.respTo.avg_buf_msgs     0.000034                       # Average number of messages in buffer
system.ruby.dir_cntrl1.respTo.avg_stall_time  5535.744425                       # Average number of cycles messages are stalled in this MB
system.ruby.dir_cntrl1.responseFromMemory.avg_buf_msgs     0.000831                       # Average number of messages in buffer
system.ruby.dir_cntrl1.responseFromMemory.avg_stall_time   499.999933                       # Average number of cycles messages are stalled in this MB
system.ruby.dir_cntrl2.fwdFrom.avg_buf_msgs     0.003297                       # Average number of messages in buffer
system.ruby.dir_cntrl2.fwdFrom.avg_stall_time  2999.939945                       # Average number of cycles messages are stalled in this MB
system.ruby.dir_cntrl2.reqTo.avg_buf_msgs     0.001230                       # Average number of messages in buffer
system.ruby.dir_cntrl2.reqTo.avg_stall_time  5116.467664                       # Average number of cycles messages are stalled in this MB
system.ruby.dir_cntrl2.requestToMemory.avg_buf_msgs     0.000812                       # Average number of messages in buffer
system.ruby.dir_cntrl2.requestToMemory.avg_stall_time   499.999762                       # Average number of cycles messages are stalled in this MB
system.ruby.dir_cntrl2.respFrom.avg_buf_msgs     0.003689                       # Average number of messages in buffer
system.ruby.dir_cntrl2.respFrom.avg_stall_time  2999.998192                       # Average number of cycles messages are stalled in this MB
system.ruby.dir_cntrl2.respTo.avg_buf_msgs     0.000036                       # Average number of messages in buffer
system.ruby.dir_cntrl2.respTo.avg_stall_time  6173.636431                       # Average number of cycles messages are stalled in this MB
system.ruby.dir_cntrl2.responseFromMemory.avg_buf_msgs     0.000814                       # Average number of messages in buffer
system.ruby.dir_cntrl2.responseFromMemory.avg_stall_time   499.999701                       # Average number of cycles messages are stalled in this MB
system.ruby.dir_cntrl3.fwdFrom.avg_buf_msgs     0.003295                       # Average number of messages in buffer
system.ruby.dir_cntrl3.fwdFrom.avg_stall_time  2999.993908                       # Average number of cycles messages are stalled in this MB
system.ruby.dir_cntrl3.reqTo.avg_buf_msgs     0.001263                       # Average number of messages in buffer
system.ruby.dir_cntrl3.reqTo.avg_stall_time  5046.634238                       # Average number of cycles messages are stalled in this MB
system.ruby.dir_cntrl3.requestToMemory.avg_buf_msgs     0.000814                       # Average number of messages in buffer
system.ruby.dir_cntrl3.requestToMemory.avg_stall_time   499.999996                       # Average number of cycles messages are stalled in this MB
system.ruby.dir_cntrl3.respFrom.avg_buf_msgs     0.003692                       # Average number of messages in buffer
system.ruby.dir_cntrl3.respFrom.avg_stall_time  2999.999591                       # Average number of cycles messages are stalled in this MB
system.ruby.dir_cntrl3.respTo.avg_buf_msgs     0.000035                       # Average number of messages in buffer
system.ruby.dir_cntrl3.respTo.avg_stall_time  6326.479824                       # Average number of cycles messages are stalled in this MB
system.ruby.dir_cntrl3.responseFromMemory.avg_buf_msgs     0.000815                       # Average number of messages in buffer
system.ruby.dir_cntrl3.responseFromMemory.avg_stall_time   499.999934                       # Average number of cycles messages are stalled in this MB
system.ruby.dma_cntrl0.cache.demand_accesses            0                       # Number of cache demand accesses
system.ruby.dma_cntrl0.cache.demand_hits            0                       # Number of cache demand hits
system.ruby.dma_cntrl0.cache.demand_misses            0                       # Number of cache demand misses
system.ruby.hit_latency_hist_seqr::bucket_size            1                      
system.ruby.hit_latency_hist_seqr::max_bucket            9                      
system.ruby.hit_latency_hist_seqr::samples   2439317042                      
system.ruby.hit_latency_hist_seqr        |  2439317042    100.00%    100.00% |           0      0.00%    100.00% |           0      0.00%    100.00% |           0      0.00%    100.00% |           0      0.00%    100.00% |           0      0.00%    100.00% |           0      0.00%    100.00% |           0      0.00%    100.00% |           0      0.00%    100.00% |           0      0.00%    100.00%
system.ruby.hit_latency_hist_seqr::total   2439317042                      
system.ruby.io_controller.cache.demand_accesses            0                       # Number of cache demand accesses
system.ruby.io_controller.cache.demand_hits            0                       # Number of cache demand hits
system.ruby.io_controller.cache.demand_misses            0                       # Number of cache demand misses
system.ruby.l1_cntrl0.cache.demand_accesses            0                       # Number of cache demand accesses
system.ruby.l1_cntrl0.cache.demand_hits             0                       # Number of cache demand hits
system.ruby.l1_cntrl0.cache.demand_misses            0                       # Number of cache demand misses
system.ruby.l1_cntrl0.fully_busy_cycles            73                       # cycles for which number of transistions == max transitions
system.ruby.l1_cntrl0.fwdFrom.avg_buf_msgs     3.239717                       # Average number of messages in buffer
system.ruby.l1_cntrl0.fwdFrom.avg_stall_time  6479.294336                       # Average number of cycles messages are stalled in this MB
system.ruby.l1_cntrl0.mandatoryQueue.avg_buf_msgs     0.450604                       # Average number of messages in buffer
system.ruby.l1_cntrl0.mandatoryQueue.avg_stall_time  1147.578231                       # Average number of cycles messages are stalled in this MB
system.ruby.l1_cntrl0.reqTo.avg_buf_msgs     0.001133                       # Average number of messages in buffer
system.ruby.l1_cntrl0.reqTo.avg_stall_time   500.002154                       # Average number of cycles messages are stalled in this MB
system.ruby.l1_cntrl0.respFrom.avg_buf_msgs     0.000641                       # Average number of messages in buffer
system.ruby.l1_cntrl0.respFrom.avg_stall_time 16506.626768                       # Average number of cycles messages are stalled in this MB
system.ruby.l1_cntrl0.respTo.avg_buf_msgs     0.000111                       # Average number of messages in buffer
system.ruby.l1_cntrl0.respTo.avg_stall_time   999.843707                       # Average number of cycles messages are stalled in this MB
system.ruby.l1_cntrl1.cache.demand_accesses            0                       # Number of cache demand accesses
system.ruby.l1_cntrl1.cache.demand_hits             0                       # Number of cache demand hits
system.ruby.l1_cntrl1.cache.demand_misses            0                       # Number of cache demand misses
system.ruby.l1_cntrl1.fully_busy_cycles            70                       # cycles for which number of transistions == max transitions
system.ruby.l1_cntrl1.fwdFrom.avg_buf_msgs    62.955573                       # Average number of messages in buffer
system.ruby.l1_cntrl1.fwdFrom.avg_stall_time  6555.792490                       # Average number of cycles messages are stalled in this MB
system.ruby.l1_cntrl1.mandatoryQueue.avg_buf_msgs     0.473642                       # Average number of messages in buffer
system.ruby.l1_cntrl1.mandatoryQueue.avg_stall_time  1225.528929                       # Average number of cycles messages are stalled in this MB
system.ruby.l1_cntrl1.reqTo.avg_buf_msgs     0.001189                       # Average number of messages in buffer
system.ruby.l1_cntrl1.reqTo.avg_stall_time   500.001333                       # Average number of cycles messages are stalled in this MB
system.ruby.l1_cntrl1.respFrom.avg_buf_msgs     0.000669                       # Average number of messages in buffer
system.ruby.l1_cntrl1.respFrom.avg_stall_time 16531.420366                       # Average number of cycles messages are stalled in this MB
system.ruby.l1_cntrl1.respTo.avg_buf_msgs     0.000126                       # Average number of messages in buffer
system.ruby.l1_cntrl1.respTo.avg_stall_time   999.925918                       # Average number of cycles messages are stalled in this MB
system.ruby.l1_cntrl2.cache.demand_accesses            0                       # Number of cache demand accesses
system.ruby.l1_cntrl2.cache.demand_hits             0                       # Number of cache demand hits
system.ruby.l1_cntrl2.cache.demand_misses            0                       # Number of cache demand misses
system.ruby.l1_cntrl2.fully_busy_cycles            54                       # cycles for which number of transistions == max transitions
system.ruby.l1_cntrl2.fwdFrom.avg_buf_msgs    16.113823                       # Average number of messages in buffer
system.ruby.l1_cntrl2.fwdFrom.avg_stall_time  6530.007107                       # Average number of cycles messages are stalled in this MB
system.ruby.l1_cntrl2.mandatoryQueue.avg_buf_msgs     0.455760                       # Average number of messages in buffer
system.ruby.l1_cntrl2.mandatoryQueue.avg_stall_time  1244.212227                       # Average number of cycles messages are stalled in this MB
system.ruby.l1_cntrl2.reqTo.avg_buf_msgs     0.001152                       # Average number of messages in buffer
system.ruby.l1_cntrl2.reqTo.avg_stall_time   500.002367                       # Average number of cycles messages are stalled in this MB
system.ruby.l1_cntrl2.respFrom.avg_buf_msgs     0.000647                       # Average number of messages in buffer
system.ruby.l1_cntrl2.respFrom.avg_stall_time 16476.366799                       # Average number of cycles messages are stalled in this MB
system.ruby.l1_cntrl2.respTo.avg_buf_msgs     0.000096                       # Average number of messages in buffer
system.ruby.l1_cntrl2.respTo.avg_stall_time   999.835545                       # Average number of cycles messages are stalled in this MB
system.ruby.l1_cntrl3.cache.demand_accesses            0                       # Number of cache demand accesses
system.ruby.l1_cntrl3.cache.demand_hits             0                       # Number of cache demand hits
system.ruby.l1_cntrl3.cache.demand_misses            0                       # Number of cache demand misses
system.ruby.l1_cntrl3.fully_busy_cycles            52                       # cycles for which number of transistions == max transitions
system.ruby.l1_cntrl3.fwdFrom.avg_buf_msgs    37.812110                       # Average number of messages in buffer
system.ruby.l1_cntrl3.fwdFrom.avg_stall_time  6544.205914                       # Average number of cycles messages are stalled in this MB
system.ruby.l1_cntrl3.mandatoryQueue.avg_buf_msgs     0.471059                       # Average number of messages in buffer
system.ruby.l1_cntrl3.mandatoryQueue.avg_stall_time  1220.045922                       # Average number of cycles messages are stalled in this MB
system.ruby.l1_cntrl3.reqTo.avg_buf_msgs     0.001171                       # Average number of messages in buffer
system.ruby.l1_cntrl3.reqTo.avg_stall_time   499.639571                       # Average number of cycles messages are stalled in this MB
system.ruby.l1_cntrl3.respFrom.avg_buf_msgs     0.000658                       # Average number of messages in buffer
system.ruby.l1_cntrl3.respFrom.avg_stall_time 16510.116743                       # Average number of cycles messages are stalled in this MB
system.ruby.l1_cntrl3.respTo.avg_buf_msgs     0.000078                       # Average number of messages in buffer
system.ruby.l1_cntrl3.respTo.avg_stall_time   999.127327                       # Average number of cycles messages are stalled in this MB
system.ruby.latency_hist_seqr::bucket_size            1                      
system.ruby.latency_hist_seqr::max_bucket            9                      
system.ruby.latency_hist_seqr::samples     2442816603                      
system.ruby.latency_hist_seqr            |  2442816603    100.00%    100.00% |           0      0.00%    100.00% |           0      0.00%    100.00% |           0      0.00%    100.00% |           0      0.00%    100.00% |           0      0.00%    100.00% |           0      0.00%    100.00% |           0      0.00%    100.00% |           0      0.00%    100.00% |           0      0.00%    100.00%
system.ruby.latency_hist_seqr::total       2442816603                      
system.ruby.miss_latency_hist_seqr::bucket_size            1                      
system.ruby.miss_latency_hist_seqr::max_bucket            9                      
system.ruby.miss_latency_hist_seqr::samples      3499561                      
system.ruby.miss_latency_hist_seqr       |     3499561    100.00%    100.00% |           0      0.00%    100.00% |           0      0.00%    100.00% |           0      0.00%    100.00% |           0      0.00%    100.00% |           0      0.00%    100.00% |           0      0.00%    100.00% |           0      0.00%    100.00% |           0      0.00%    100.00% |           0      0.00%    100.00%
system.ruby.miss_latency_hist_seqr::total      3499561                      
system.ruby.network.average_flit_latency    16.519153                      
system.ruby.network.average_flit_network_latency    12.336857                      
system.ruby.network.average_flit_queueing_latency     4.182296                      
system.ruby.network.average_flit_vnet_latency |   14.953041                       |    5.041687                       |    9.928550                      
system.ruby.network.average_flit_vqueue_latency |    5.717229                       |    6.000012                       |    1.000148                      
system.ruby.network.average_hops             1.015580                      
system.ruby.network.average_packet_latency    15.493522                      
system.ruby.network.average_packet_network_latency    12.037847                      
system.ruby.network.average_packet_queueing_latency     3.455675                      
system.ruby.network.average_packet_vnet_latency |   24.049902                       |    5.041687                       |    8.254540                      
system.ruby.network.average_packet_vqueue_latency |    5.551597                       |    6.000012                       |    1.000102                      
system.ruby.network.avg_link_utilization     0.069500                      
system.ruby.network.avg_vc_load          |    0.029723     42.77%     42.77% |    0.003503      5.04%     47.81% |    0.003345      4.81%     52.62% |    0.003258      4.69%     57.31% |    0.005011      7.21%     64.52% |    0.000558      0.80%     65.32% |    0.000554      0.80%     66.12% |    0.000554      0.80%     66.91% |    0.017057     24.54%     91.46% |    0.002117      3.05%     94.50% |    0.001925      2.77%     97.27% |    0.001895      2.73%    100.00%
system.ruby.network.avg_vc_load::total       0.069500                      
system.ruby.network.ext_in_link_utilization     31428438                      
system.ruby.network.ext_out_link_utilization     31428438                      
system.ruby.network.flit_network_latency |   269169706                       |    15224066                       |   103334366                      
system.ruby.network.flit_queueing_latency |   102915843                       |    18117857                       |    10409337                      
system.ruby.network.flits_injected       |    18001001     57.28%     57.28% |     3019637      9.61%     66.88% |    10407800     33.12%    100.00%
system.ruby.network.flits_injected::total     31428438                      
system.ruby.network.flits_received       |    18001001     57.28%     57.28% |     3019637      9.61%     66.88% |    10407800     33.12%    100.00%
system.ruby.network.flits_received::total     31428438                      
system.ruby.network.int_link_utilization     31918105                      
system.ruby.network.packet_network_latency |    90261902                       |    15224066                       |    52269465                      
system.ruby.network.packet_queueing_latency |    20835747                       |    18117857                       |     6332857                      
system.ruby.network.packets_injected     |     3753109     28.64%     28.64% |     3019637     23.04%     51.68% |     6332208     48.32%    100.00%
system.ruby.network.packets_injected::total     13104954                      
system.ruby.network.packets_received     |     3753109     28.64%     28.64% |     3019637     23.04%     51.68% |     6332208     48.32%    100.00%
system.ruby.network.packets_received::total     13104954                      
system.ruby.network.routers0.buffer_reads     15677349                      
system.ruby.network.routers0.buffer_writes     15677349                      
system.ruby.network.routers0.crossbar_activity     15677349                      
system.ruby.network.routers0.sw_input_arbiter_activity     15701961                      
system.ruby.network.routers0.sw_output_arbiter_activity     15677349                      
system.ruby.network.routers1.buffer_reads     16092312                      
system.ruby.network.routers1.buffer_writes     16092312                      
system.ruby.network.routers1.crossbar_activity     16092312                      
system.ruby.network.routers1.sw_input_arbiter_activity     16117659                      
system.ruby.network.routers1.sw_output_arbiter_activity     16092312                      
system.ruby.network.routers2.buffer_reads     15713165                      
system.ruby.network.routers2.buffer_writes     15713165                      
system.ruby.network.routers2.crossbar_activity     15713165                      
system.ruby.network.routers2.sw_input_arbiter_activity     15737249                      
system.ruby.network.routers2.sw_output_arbiter_activity     15713165                      
system.ruby.network.routers3.buffer_reads     15863717                      
system.ruby.network.routers3.buffer_writes     15863717                      
system.ruby.network.routers3.crossbar_activity     15863717                      
system.ruby.network.routers3.sw_input_arbiter_activity     15887465                      
system.ruby.network.routers3.sw_output_arbiter_activity     15863717                      
system.ruby.outstanding_req_hist_seqr::bucket_size            1                      
system.ruby.outstanding_req_hist_seqr::max_bucket            9                      
system.ruby.outstanding_req_hist_seqr::samples   2442816604                      
system.ruby.outstanding_req_hist_seqr::mean     1.001940                      
system.ruby.outstanding_req_hist_seqr::gmean     1.001346                      
system.ruby.outstanding_req_hist_seqr::stdev     0.044008                      
system.ruby.outstanding_req_hist_seqr    |           0      0.00%      0.00% |  2438076425     99.81%     99.81% |     4740179      0.19%    100.00% |           0      0.00%    100.00% |           0      0.00%    100.00% |           0      0.00%    100.00% |           0      0.00%    100.00% |           0      0.00%    100.00% |           0      0.00%    100.00% |           0      0.00%    100.00%
system.ruby.outstanding_req_hist_seqr::total   2442816604                      
system.switch_cpus0.Branches                 45857862                       # Number of branches fetched
system.switch_cpus0.committedInsts          338914707                       # Number of instructions committed
system.switch_cpus0.committedOps            622946190                       # Number of ops (including micro ops) committed
system.switch_cpus0.dtb.rdAccesses           94865049                       # TLB accesses on read requests
system.switch_cpus0.dtb.rdMisses                53550                       # TLB misses on read requests
system.switch_cpus0.dtb.wrAccesses           13203643                       # TLB accesses on write requests
system.switch_cpus0.dtb.wrMisses                15755                       # TLB misses on write requests
system.switch_cpus0.idle_fraction            0.059709                       # Percentage of idle cycles
system.switch_cpus0.itb.rdAccesses                  0                       # TLB accesses on read requests
system.switch_cpus0.itb.rdMisses                    0                       # TLB misses on read requests
system.switch_cpus0.itb.wrAccesses          486667036                       # TLB accesses on write requests
system.switch_cpus0.itb.wrMisses                 4368                       # TLB misses on write requests
system.switch_cpus0.kern.inst.arm                   0                       # number of arm instructions executed
system.switch_cpus0.kern.inst.quiesce               0                       # number of quiesce instructions executed
system.switch_cpus0.not_idle_fraction        0.940291                       # Percentage of non-idle cycles
system.switch_cpus0.numCycles              1363663414                       # number of cpu cycles simulated
system.switch_cpus0.numWorkItemsCompleted            0                       # number of work items this cpu completed
system.switch_cpus0.numWorkItemsStarted             0                       # number of work items this cpu started
system.switch_cpus0.num_busy_cycles      1282239821.031960                       # Number of busy cycles
system.switch_cpus0.num_cc_register_reads    255851978                       # number of times the CC registers were read
system.switch_cpus0.num_cc_register_writes    144644858                       # number of times the CC registers were written
system.switch_cpus0.num_conditional_control_insts     42734368                       # number of instructions that are conditional controls
system.switch_cpus0.num_fp_alu_accesses     281384289                       # Number of float alu accesses
system.switch_cpus0.num_fp_insts            281384289                       # number of float instructions
system.switch_cpus0.num_fp_register_reads    338942193                       # number of times the floating registers were read
system.switch_cpus0.num_fp_register_writes    266621148                       # number of times the floating registers were written
system.switch_cpus0.num_func_calls            1218038                       # number of times a function call or return occured
system.switch_cpus0.num_idle_cycles      81423592.968040                       # Number of idle cycles
system.switch_cpus0.num_int_alu_accesses    411974079                       # Number of integer alu accesses
system.switch_cpus0.num_int_insts           411974079                       # number of integer instructions
system.switch_cpus0.num_int_register_reads    797107388                       # number of times the integer registers were read
system.switch_cpus0.num_int_register_writes    286394484                       # number of times the integer registers were written
system.switch_cpus0.num_load_insts           93672453                       # Number of load instructions
system.switch_cpus0.num_mem_refs            106846487                       # number of memory refs
system.switch_cpus0.num_store_insts          13174034                       # Number of store instructions
system.switch_cpus0.num_vec_alu_accesses            0                       # Number of vector alu accesses
system.switch_cpus0.num_vec_insts                   0                       # number of vector instructions
system.switch_cpus0.num_vec_register_reads            0                       # number of times the vector registers were read
system.switch_cpus0.num_vec_register_writes            0                       # number of times the vector registers were written
system.switch_cpus0.op_class::No_OpClass      1276914      0.20%      0.20% # Class of executed instruction
system.switch_cpus0.op_class::IntAlu        332770572     53.42%     53.62% # Class of executed instruction
system.switch_cpus0.op_class::IntMult         1207013      0.19%     53.82% # Class of executed instruction
system.switch_cpus0.op_class::IntDiv            40288      0.01%     53.82% # Class of executed instruction
system.switch_cpus0.op_class::FloatAdd       83949034     13.48%     67.30% # Class of executed instruction
system.switch_cpus0.op_class::FloatCmp              0      0.00%     67.30% # Class of executed instruction
system.switch_cpus0.op_class::FloatCvt            464      0.00%     67.30% # Class of executed instruction
system.switch_cpus0.op_class::FloatMult             0      0.00%     67.30% # Class of executed instruction
system.switch_cpus0.op_class::FloatMultAcc            0      0.00%     67.30% # Class of executed instruction
system.switch_cpus0.op_class::FloatDiv              0      0.00%     67.30% # Class of executed instruction
system.switch_cpus0.op_class::FloatMisc             0      0.00%     67.30% # Class of executed instruction
system.switch_cpus0.op_class::FloatSqrt             0      0.00%     67.30% # Class of executed instruction
system.switch_cpus0.op_class::SimdAdd             196      0.00%     67.30% # Class of executed instruction
system.switch_cpus0.op_class::SimdAddAcc            0      0.00%     67.30% # Class of executed instruction
system.switch_cpus0.op_class::SimdAlu         1259054      0.20%     67.50% # Class of executed instruction
system.switch_cpus0.op_class::SimdCmp               0      0.00%     67.50% # Class of executed instruction
system.switch_cpus0.op_class::SimdCvt             392      0.00%     67.50% # Class of executed instruction
system.switch_cpus0.op_class::SimdMisc         109405      0.02%     67.52% # Class of executed instruction
system.switch_cpus0.op_class::SimdMult              0      0.00%     67.52% # Class of executed instruction
system.switch_cpus0.op_class::SimdMultAcc            0      0.00%     67.52% # Class of executed instruction
system.switch_cpus0.op_class::SimdShift            78      0.00%     67.52% # Class of executed instruction
system.switch_cpus0.op_class::SimdShiftAcc            0      0.00%     67.52% # Class of executed instruction
system.switch_cpus0.op_class::SimdDiv               0      0.00%     67.52% # Class of executed instruction
system.switch_cpus0.op_class::SimdSqrt              0      0.00%     67.52% # Class of executed instruction
system.switch_cpus0.op_class::SimdFloatAdd     48747781      7.83%     75.35% # Class of executed instruction
system.switch_cpus0.op_class::SimdFloatAlu            0      0.00%     75.35% # Class of executed instruction
system.switch_cpus0.op_class::SimdFloatCmp            0      0.00%     75.35% # Class of executed instruction
system.switch_cpus0.op_class::SimdFloatCvt      8797763      1.41%     76.76% # Class of executed instruction
system.switch_cpus0.op_class::SimdFloatDiv      1300201      0.21%     76.97% # Class of executed instruction
system.switch_cpus0.op_class::SimdFloatMisc            0      0.00%     76.97% # Class of executed instruction
system.switch_cpus0.op_class::SimdFloatMult     36045018      5.79%     82.75% # Class of executed instruction
system.switch_cpus0.op_class::SimdFloatMultAcc            0      0.00%     82.75% # Class of executed instruction
system.switch_cpus0.op_class::SimdFloatSqrt       595538      0.10%     82.85% # Class of executed instruction
system.switch_cpus0.op_class::SimdReduceAdd            0      0.00%     82.85% # Class of executed instruction
system.switch_cpus0.op_class::SimdReduceAlu            0      0.00%     82.85% # Class of executed instruction
system.switch_cpus0.op_class::SimdReduceCmp            0      0.00%     82.85% # Class of executed instruction
system.switch_cpus0.op_class::SimdFloatReduceAdd            0      0.00%     82.85% # Class of executed instruction
system.switch_cpus0.op_class::SimdFloatReduceCmp            0      0.00%     82.85% # Class of executed instruction
system.switch_cpus0.op_class::SimdAes               0      0.00%     82.85% # Class of executed instruction
system.switch_cpus0.op_class::SimdAesMix            0      0.00%     82.85% # Class of executed instruction
system.switch_cpus0.op_class::SimdSha1Hash            0      0.00%     82.85% # Class of executed instruction
system.switch_cpus0.op_class::SimdSha1Hash2            0      0.00%     82.85% # Class of executed instruction
system.switch_cpus0.op_class::SimdSha256Hash            0      0.00%     82.85% # Class of executed instruction
system.switch_cpus0.op_class::SimdSha256Hash2            0      0.00%     82.85% # Class of executed instruction
system.switch_cpus0.op_class::SimdShaSigma2            0      0.00%     82.85% # Class of executed instruction
system.switch_cpus0.op_class::SimdShaSigma3            0      0.00%     82.85% # Class of executed instruction
system.switch_cpus0.op_class::SimdPredAlu            0      0.00%     82.85% # Class of executed instruction
system.switch_cpus0.op_class::MemRead        25698758      4.13%     86.97% # Class of executed instruction
system.switch_cpus0.op_class::MemWrite        7209316      1.16%     88.13% # Class of executed instruction
system.switch_cpus0.op_class::FloatMemRead     67973695     10.91%     99.04% # Class of executed instruction
system.switch_cpus0.op_class::FloatMemWrite      5964718      0.96%    100.00% # Class of executed instruction
system.switch_cpus0.op_class::IprAccess             0      0.00%    100.00% # Class of executed instruction
system.switch_cpus0.op_class::InstPrefetch            0      0.00%    100.00% # Class of executed instruction
system.switch_cpus0.op_class::total         622946198                       # Class of executed instruction
system.switch_cpus1.Branches                 48045483                       # Number of branches fetched
system.switch_cpus1.committedInsts          356052277                       # Number of instructions committed
system.switch_cpus1.committedOps            654035589                       # Number of ops (including micro ops) committed
system.switch_cpus1.dtb.rdAccesses           99776118                       # TLB accesses on read requests
system.switch_cpus1.dtb.rdMisses                59766                       # TLB misses on read requests
system.switch_cpus1.dtb.wrAccesses           14078868                       # TLB accesses on write requests
system.switch_cpus1.dtb.wrMisses                19662                       # TLB misses on write requests
system.switch_cpus1.idle_fraction            0.009129                       # Percentage of idle cycles
system.switch_cpus1.itb.rdAccesses                  0                       # TLB accesses on read requests
system.switch_cpus1.itb.rdMisses                    0                       # TLB misses on read requests
system.switch_cpus1.itb.wrAccesses          511091234                       # TLB accesses on write requests
system.switch_cpus1.itb.wrMisses                 4416                       # TLB misses on write requests
system.switch_cpus1.kern.inst.arm                   0                       # number of arm instructions executed
system.switch_cpus1.kern.inst.quiesce               0                       # number of quiesce instructions executed
system.switch_cpus1.not_idle_fraction        0.990871                       # Percentage of non-idle cycles
system.switch_cpus1.numCycles              1363663648                       # number of cpu cycles simulated
system.switch_cpus1.numWorkItemsCompleted            0                       # number of work items this cpu completed
system.switch_cpus1.numWorkItemsStarted             0                       # number of work items this cpu started
system.switch_cpus1.num_busy_cycles      1351214200.009166                       # Number of busy cycles
system.switch_cpus1.num_cc_register_reads    267362651                       # number of times the CC registers were read
system.switch_cpus1.num_cc_register_writes    152071296                       # number of times the CC registers were written
system.switch_cpus1.num_conditional_control_insts     44487419                       # number of instructions that are conditional controls
system.switch_cpus1.num_fp_alu_accesses     294514239                       # Number of float alu accesses
system.switch_cpus1.num_fp_insts            294514239                       # number of float instructions
system.switch_cpus1.num_fp_register_reads    354304082                       # number of times the floating registers were read
system.switch_cpus1.num_fp_register_writes    279056399                       # number of times the floating registers were written
system.switch_cpus1.num_func_calls            1409703                       # number of times a function call or return occured
system.switch_cpus1.num_idle_cycles      12449447.990834                       # Number of idle cycles
system.switch_cpus1.num_int_alu_accesses    433198907                       # Number of integer alu accesses
system.switch_cpus1.num_int_insts           433198907                       # number of integer instructions
system.switch_cpus1.num_int_register_reads    839206230                       # number of times the integer registers were read
system.switch_cpus1.num_int_register_writes    301227546                       # number of times the integer registers were written
system.switch_cpus1.num_load_insts           98529300                       # Number of load instructions
system.switch_cpus1.num_mem_refs            112570513                       # number of memory refs
system.switch_cpus1.num_store_insts          14041213                       # Number of store instructions
system.switch_cpus1.num_vec_alu_accesses            0                       # Number of vector alu accesses
system.switch_cpus1.num_vec_insts                   0                       # number of vector instructions
system.switch_cpus1.num_vec_register_reads            0                       # number of times the vector registers were read
system.switch_cpus1.num_vec_register_writes            0                       # number of times the vector registers were written
system.switch_cpus1.op_class::No_OpClass      1190601      0.18%      0.18% # Class of executed instruction
system.switch_cpus1.op_class::IntAlu        349826971     53.49%     53.67% # Class of executed instruction
system.switch_cpus1.op_class::IntMult         1269792      0.19%     53.86% # Class of executed instruction
system.switch_cpus1.op_class::IntDiv            33046      0.01%     53.87% # Class of executed instruction
system.switch_cpus1.op_class::FloatAdd       87912611     13.44%     67.31% # Class of executed instruction
system.switch_cpus1.op_class::FloatCmp              0      0.00%     67.31% # Class of executed instruction
[...]
system.mem_ctrls1.llc.WriteReq_hits::.ruby.dir_cntrl1       272242                       # number of WriteReq hits
system.mem_ctrls1.llc.WriteReq_hits::total       272242                       # number of WriteReq hits
system.mem_ctrls1.llc.WriteReq_accesses::.ruby.dir_cntrl1       272242                       # number of WriteReq accesses(hits+misses)
system.mem_ctrls1.llc.WriteReq_accesses::total       272242                       # number of WriteReq accesses(hits+misses)
system.mem_ctrls1.llc.power_state.pwrStateResidencyTicks::UNDEFINED 100567997948001                       # Cumulative time (in ticks) in various power states
system.mem_ctrls1.llc.tags.tagsinuse     42742.092875                       # Cycle average of tags in use
system.mem_ctrls1.llc.tags.total_refs               0                       # Total number of references to valid blocks.
system.mem_ctrls1.llc.tags.sampled_refs             0                       # Sample count of references to valid blocks.
system.mem_ctrls1.llc.tags.avg_refs               nan                       # Average number of references to valid blocks.
system.mem_ctrls1.llc.tags.warmup_cycle  99886166193500                       # Cycle when the warmup percentage was hit.
system.mem_ctrls1.llc.tags.occ_blocks::.ruby.dir_cntrl1 42742.092875                       # Average occupied blocks per requestor
system.mem_ctrls1.llc.tags.occ_percent::.ruby.dir_cntrl1     0.163048                       # Average percentage of cache occupancy
system.mem_ctrls1.llc.tags.occ_percent::total     0.163048                       # Average percentage of cache occupancy
system.mem_ctrls1.llc.tags.occ_task_id_blocks::1024        47036                       # Occupied blocks per task id
system.mem_ctrls1.llc.tags.age_task_id_blocks_1024::0            8                       # Occupied blocks per task id
system.mem_ctrls1.llc.tags.age_task_id_blocks_1024::1           80                       # Occupied blocks per task id
system.mem_ctrls1.llc.tags.age_task_id_blocks_1024::2          105                       # Occupied blocks per task id
system.mem_ctrls1.llc.tags.age_task_id_blocks_1024::4        46843                       # Occupied blocks per task id
system.mem_ctrls1.llc.tags.occ_task_id_percent::1024     0.179428                       # Percentage of cache occupancy per task id
system.mem_ctrls1.llc.tags.tag_accesses      18137964                       # Number of tag accesses
system.mem_ctrls1.llc.tags.data_accesses      1130683                       # Number of data accesses
system.mem_ctrls1.llc.tags.power_state.pwrStateResidencyTicks::UNDEFINED 100567997948001                       # Cumulative time (in ticks) in various power states
system.mem_ctrls1.rank1.actEnergy            52221960                       # Energy for activate commands per rank (pJ)
system.mem_ctrls1.rank1.preEnergy            27752835                       # Energy for precharge commands per rank (pJ)
system.mem_ctrls1.rank1.readEnergy          166640460                       # Energy for read commands per rank (pJ)
system.mem_ctrls1.rank1.writeEnergy                 0                       # Energy for write commands per rank (pJ)
system.mem_ctrls1.rank1.refreshEnergy    53822795520.000008                       # Energy for refresh commands per rank (pJ)
system.mem_ctrls1.rank1.actBackEnergy     16227670860                       # Energy for active background per rank (pJ)
system.mem_ctrls1.rank1.preBackEnergy    248157636960                       # Energy for precharge background per rank (pJ)
system.mem_ctrls1.rank1.actPowerDownEnergy            0                       # Energy for active power-down per rank (pJ)
system.mem_ctrls1.rank1.prePowerDownEnergy            0                       # Energy for precharge power-down per rank (pJ)
system.mem_ctrls1.rank1.selfRefreshEnergy            0                       # Energy for self refresh per rank (pJ)
system.mem_ctrls1.rank1.totalEnergy      318454718595                       # Total energy per rank (pJ)
system.mem_ctrls1.rank1.averagePower       467.057575                       # Core power per rank (mW)
system.mem_ctrls1.rank1.totalIdleTime               0                       # Total Idle time Per DRAM Rank
system.mem_ctrls1.rank1.memoryStateTime::IDLE 645002424750                       # Time in different power states
system.mem_ctrls1.rank1.memoryStateTime::REF  22767680000                       # Time in different power states
system.mem_ctrls1.rank1.memoryStateTime::SREF            0                       # Time in different power states
system.mem_ctrls1.rank1.memoryStateTime::PRE_PDN            0                       # Time in different power states
system.mem_ctrls1.rank1.memoryStateTime::ACT  14061719751                       # Time in different power states
system.mem_ctrls1.rank1.memoryStateTime::ACT_PDN            0                       # Time in different power states
system.mem_ctrls1.rank0.actEnergy            53292960                       # Energy for activate commands per rank (pJ)
system.mem_ctrls1.rank0.preEnergy            28325880                       # Energy for precharge commands per rank (pJ)
system.mem_ctrls1.rank0.readEnergy          169196580                       # Energy for read commands per rank (pJ)
system.mem_ctrls1.rank0.writeEnergy                 0                       # Energy for write commands per rank (pJ)
system.mem_ctrls1.rank0.refreshEnergy    53822795520.000008                       # Energy for refresh commands per rank (pJ)
system.mem_ctrls1.rank0.actBackEnergy     16292263830                       # Energy for active background per rank (pJ)
system.mem_ctrls1.rank0.preBackEnergy    248103612960                       # Energy for precharge background per rank (pJ)
system.mem_ctrls1.rank0.actPowerDownEnergy            0                       # Energy for active power-down per rank (pJ)
system.mem_ctrls1.rank0.prePowerDownEnergy            0                       # Energy for precharge power-down per rank (pJ)
system.mem_ctrls1.rank0.selfRefreshEnergy            0                       # Energy for self refresh per rank (pJ)
system.mem_ctrls1.rank0.totalEnergy      318469487730                       # Total energy per rank (pJ)
system.mem_ctrls1.rank0.averagePower       467.079236                       # Core power per rank (mW)
system.mem_ctrls1.rank0.totalIdleTime               0                       # Total Idle time Per DRAM Rank
system.mem_ctrls1.rank0.memoryStateTime::IDLE 644860589252                       # Time in different power states
system.mem_ctrls1.rank0.memoryStateTime::REF  22767680000                       # Time in different power states
system.mem_ctrls1.rank0.memoryStateTime::SREF            0                       # Time in different power states
system.mem_ctrls1.rank0.memoryStateTime::PRE_PDN            0                       # Time in different power states
system.mem_ctrls1.rank0.memoryStateTime::ACT  14203555249                       # Time in different power states
system.mem_ctrls1.rank0.memoryStateTime::ACT_PDN            0                       # Time in different power states
system.mem_ctrls1.power_state.pwrStateResidencyTicks::UNDEFINED 100567997948001                       # Cumulative time (in ticks) in various power states
system.cpu_voltage_domain.voltage                   1                       # Voltage in Volts
system.iobus.trans_dist::ReadReq                  209                       # Transaction distribution
system.iobus.trans_dist::ReadResp                 209                       # Transaction distribution
system.iobus.trans_dist::WriteReq                3084                       # Transaction distribution
system.iobus.trans_dist::WriteResp               3084                       # Transaction distribution
system.iobus.pkt_count_system.pc.south_bridge.io_apic.int_master::system.ruby.l1_cntrl1.sequencer.pio-slave-port          102                       # Packet count per connected master and slave (bytes)
system.iobus.pkt_count_system.pc.south_bridge.io_apic.int_master::total          102                       # Packet count per connected master and slave (bytes)
system.iobus.pkt_count_system.ruby.l1_cntrl0.sequencer.mem-master-port::system.pc.com_1.pio            2                       # Packet count per connected master and slave (bytes)
system.iobus.pkt_count_system.ruby.l1_cntrl0.sequencer.mem-master-port::system.ruby.l1_cntrl0.sequencer.pio-slave-port         1446                       # Packet count per connected master and slave (bytes)
system.iobus.pkt_count_system.ruby.l1_cntrl0.sequencer.mem-master-port::system.ruby.l1_cntrl1.sequencer.pio-slave-port           10                       # Packet count per connected master and slave (bytes)
system.iobus.pkt_count_system.ruby.l1_cntrl0.sequencer.mem-master-port::system.ruby.l1_cntrl2.sequencer.pio-slave-port            6                       # Packet count per connected master and slave (bytes)
system.iobus.pkt_count_system.ruby.l1_cntrl0.sequencer.mem-master-port::system.ruby.l1_cntrl3.sequencer.pio-slave-port            4                       # Packet count per connected master and slave (bytes)
system.iobus.pkt_count_system.ruby.l1_cntrl0.sequencer.mem-master-port::total         1468                       # Packet count per connected master and slave (bytes)
system.iobus.pkt_count_system.ruby.l1_cntrl1.sequencer.mem-master-port::system.pc.com_1.pio          406                       # Packet count per connected master and slave (bytes)
system.iobus.pkt_count_system.ruby.l1_cntrl1.sequencer.mem-master-port::system.ruby.l1_cntrl0.sequencer.pio-slave-port           26                       # Packet count per connected master and slave (bytes)
system.iobus.pkt_count_system.ruby.l1_cntrl1.sequencer.mem-master-port::system.ruby.l1_cntrl1.sequencer.pio-slave-port         1610                       # Packet count per connected master and slave (bytes)
system.iobus.pkt_count_system.ruby.l1_cntrl1.sequencer.mem-master-port::system.ruby.l1_cntrl2.sequencer.pio-slave-port           26                       # Packet count per connected master and slave (bytes)
system.iobus.pkt_count_system.ruby.l1_cntrl1.sequencer.mem-master-port::system.ruby.l1_cntrl3.sequencer.pio-slave-port           30                       # Packet count per connected master and slave (bytes)
system.iobus.pkt_count_system.ruby.l1_cntrl1.sequencer.mem-master-port::total         2098                       # Packet count per connected master and slave (bytes)
system.iobus.pkt_count_system.ruby.l1_cntrl2.sequencer.mem-master-port::system.ruby.l1_cntrl0.sequencer.pio-slave-port            4                       # Packet count per connected master and slave (bytes)
system.iobus.pkt_count_system.ruby.l1_cntrl2.sequencer.mem-master-port::system.ruby.l1_cntrl1.sequencer.pio-slave-port           10                       # Packet count per connected master and slave (bytes)
system.iobus.pkt_count_system.ruby.l1_cntrl2.sequencer.mem-master-port::system.ruby.l1_cntrl2.sequencer.pio-slave-port         1458                       # Packet count per connected master and slave (bytes)
system.iobus.pkt_count_system.ruby.l1_cntrl2.sequencer.mem-master-port::system.ruby.l1_cntrl3.sequencer.pio-slave-port            6                       # Packet count per connected master and slave (bytes)
system.iobus.pkt_count_system.ruby.l1_cntrl2.sequencer.mem-master-port::total         1478                       # Packet count per connected master and slave (bytes)
system.iobus.pkt_count_system.ruby.l1_cntrl3.sequencer.mem-master-port::system.ruby.l1_cntrl0.sequencer.pio-slave-port            4                       # Packet count per connected master and slave (bytes)
system.iobus.pkt_count_system.ruby.l1_cntrl3.sequencer.mem-master-port::system.ruby.l1_cntrl1.sequencer.pio-slave-port            4                       # Packet count per connected master and slave (bytes)
system.iobus.pkt_count_system.ruby.l1_cntrl3.sequencer.mem-master-port::system.ruby.l1_cntrl2.sequencer.pio-slave-port            8                       # Packet count per connected master and slave (bytes)
system.iobus.pkt_count_system.ruby.l1_cntrl3.sequencer.mem-master-port::system.ruby.l1_cntrl3.sequencer.pio-slave-port         1424                       # Packet count per connected master and slave (bytes)
system.iobus.pkt_count_system.ruby.l1_cntrl3.sequencer.mem-master-port::total         1440                       # Packet count per connected master and slave (bytes)
system.iobus.pkt_count::total                    6586                       # Packet count per connected master and slave (bytes)
system.iobus.pkt_size_system.pc.south_bridge.io_apic.int_master::system.ruby.l1_cntrl1.sequencer.pio-slave-port          204                       # Cumulative packet size per connected master and slave (bytes)
system.iobus.pkt_size_system.pc.south_bridge.io_apic.int_master::total          204                       # Cumulative packet size per connected master and slave (bytes)
system.iobus.pkt_size_system.ruby.l1_cntrl0.sequencer.mem-master-port::system.pc.com_1.pio            1                       # Cumulative packet size per connected master and slave (bytes)
system.iobus.pkt_size_system.ruby.l1_cntrl0.sequencer.mem-master-port::system.ruby.l1_cntrl0.sequencer.pio-slave-port         2892                       # Cumulative packet size per connected master and slave (bytes)
system.iobus.pkt_size_system.ruby.l1_cntrl0.sequencer.mem-master-port::system.ruby.l1_cntrl1.sequencer.pio-slave-port           20                       # Cumulative packet size per connected master and slave (bytes)
system.iobus.pkt_size_system.ruby.l1_cntrl0.sequencer.mem-master-port::system.ruby.l1_cntrl2.sequencer.pio-slave-port           12                       # Cumulative packet size per connected master and slave (bytes)
system.iobus.pkt_size_system.ruby.l1_cntrl0.sequencer.mem-master-port::system.ruby.l1_cntrl3.sequencer.pio-slave-port            8                       # Cumulative packet size per connected master and slave (bytes)
system.iobus.pkt_size_system.ruby.l1_cntrl0.sequencer.mem-master-port::total         2933                       # Cumulative packet size per connected master and slave (bytes)
system.iobus.pkt_size_system.ruby.l1_cntrl1.sequencer.mem-master-port::system.pc.com_1.pio          203                       # Cumulative packet size per connected master and slave (bytes)
system.iobus.pkt_size_system.ruby.l1_cntrl1.sequencer.mem-master-port::system.ruby.l1_cntrl0.sequencer.pio-slave-port           52                       # Cumulative packet size per connected master and slave (bytes)
system.iobus.pkt_size_system.ruby.l1_cntrl1.sequencer.mem-master-port::system.ruby.l1_cntrl1.sequencer.pio-slave-port         3220                       # Cumulative packet size per connected master and slave (bytes)
system.iobus.pkt_size_system.ruby.l1_cntrl1.sequencer.mem-master-port::system.ruby.l1_cntrl2.sequencer.pio-slave-port           52                       # Cumulative packet size per connected master and slave (bytes)
system.iobus.pkt_size_system.ruby.l1_cntrl1.sequencer.mem-master-port::system.ruby.l1_cntrl3.sequencer.pio-slave-port           60                       # Cumulative packet size per connected master and slave (bytes)
system.iobus.pkt_size_system.ruby.l1_cntrl1.sequencer.mem-master-port::total         3587                       # Cumulative packet size per connected master and slave (bytes)
system.iobus.pkt_size_system.ruby.l1_cntrl2.sequencer.mem-master-port::system.ruby.l1_cntrl0.sequencer.pio-slave-port            8                       # Cumulative packet size per connected master and slave (bytes)
system.iobus.pkt_size_system.ruby.l1_cntrl2.sequencer.mem-master-port::system.ruby.l1_cntrl1.sequencer.pio-slave-port           20                       # Cumulative packet size per connected master and slave (bytes)
system.iobus.pkt_size_system.ruby.l1_cntrl2.sequencer.mem-master-port::system.ruby.l1_cntrl2.sequencer.pio-slave-port         2916                       # Cumulative packet size per connected master and slave (bytes)
system.iobus.pkt_size_system.ruby.l1_cntrl2.sequencer.mem-master-port::system.ruby.l1_cntrl3.sequencer.pio-slave-port           12                       # Cumulative packet size per connected master and slave (bytes)
system.iobus.pkt_size_system.ruby.l1_cntrl2.sequencer.mem-master-port::total         2956                       # Cumulative packet size per connected master and slave (bytes)
system.iobus.pkt_size_system.ruby.l1_cntrl3.sequencer.mem-master-port::system.ruby.l1_cntrl0.sequencer.pio-slave-port            8                       # Cumulative packet size per connected master and slave (bytes)
system.iobus.pkt_size_system.ruby.l1_cntrl3.sequencer.mem-master-port::system.ruby.l1_cntrl1.sequencer.pio-slave-port            8                       # Cumulative packet size per connected master and slave (bytes)
system.iobus.pkt_size_system.ruby.l1_cntrl3.sequencer.mem-master-port::system.ruby.l1_cntrl2.sequencer.pio-slave-port           16                       # Cumulative packet size per connected master and slave (bytes)
system.iobus.pkt_size_system.ruby.l1_cntrl3.sequencer.mem-master-port::system.ruby.l1_cntrl3.sequencer.pio-slave-port         2848                       # Cumulative packet size per connected master and slave (bytes)
system.iobus.pkt_size_system.ruby.l1_cntrl3.sequencer.mem-master-port::total         2880                       # Cumulative packet size per connected master and slave (bytes)
system.iobus.pkt_size::total                    12560                       # Cumulative packet size per connected master and slave (bytes)
system.iobus.power_state.pwrStateResidencyTicks::UNDEFINED 100567997948001                       # Cumulative time (in ticks) in various power states
system.iobus.reqLayer19.occupancy             1839317                       # Layer occupancy (ticks)
system.iobus.reqLayer19.utilization               0.0                       # Layer utilization (%)
system.iobus.reqLayer17.occupancy             1812838                       # Layer occupancy (ticks)
system.iobus.reqLayer17.utilization               0.0                       # Layer utilization (%)
system.iobus.reqLayer12.occupancy              256500                       # Layer occupancy (ticks)
system.iobus.reqLayer12.utilization               0.0                       # Layer utilization (%)
system.iobus.reqLayer18.occupancy             2060795                       # Layer occupancy (ticks)
system.iobus.reqLayer18.utilization               0.0                       # Layer utilization (%)
system.iobus.respLayer9.occupancy             1079000                       # Layer occupancy (ticks)
system.iobus.respLayer9.utilization               0.0                       # Layer utilization (%)
system.iobus.respLayer5.occupancy             1638500                       # Layer occupancy (ticks)
system.iobus.respLayer5.utilization               0.0                       # Layer utilization (%)
system.iobus.respLayer7.occupancy             1112500                       # Layer occupancy (ticks)
system.iobus.respLayer7.utilization               0.0                       # Layer utilization (%)
system.iobus.respLayer0.occupancy               76000                       # Layer occupancy (ticks)
system.iobus.respLayer0.utilization               0.0                       # Layer utilization (%)
system.iobus.respLayer3.occupancy             1103000                       # Layer occupancy (ticks)
system.iobus.respLayer3.utilization               0.0                       # Layer utilization (%)
system.iobus.reqLayer20.occupancy             1815803                       # Layer occupancy (ticks)
system.iobus.reqLayer20.utilization               0.0                       # Layer utilization (%)

---------- End Simulation Statistics   ----------
