
---------- Begin Simulation Statistics ----------
final_tick                                  968170500                       # Number of ticks from beginning of simulation (restored from checkpoints and never reset)
host_inst_rate                                    226                       # Simulator instruction rate (inst/s)
host_mem_usage                                2390828                       # Number of bytes of host memory used
host_op_rate                                      395                       # Simulator op (including micro ops) rate (op/s)
host_seconds                                  2077.29                       # Real time elapsed on the host
host_tick_rate                                 466073                       # Simulator tick rate (ticks/s)
sim_freq                                 1000000000000                       # Frequency of simulated ticks
sim_insts                                      470219                       # Number of instructions simulated
sim_ops                                        820335                       # Number of ops (including micro ops) simulated
sim_seconds                                  0.000968                       # Number of seconds simulated
sim_ticks                                   968170500                       # Number of ticks simulated
system.cpu00.Branches                           52479                       # Number of branches fetched
system.cpu00.committedInsts                    251408                       # Number of instructions committed
system.cpu00.committedOps                      475748                       # Number of ops (including micro ops) committed
system.cpu00.dtb.rdAccesses                     62308                       # TLB accesses on read requests
system.cpu00.dtb.rdMisses                         447                       # TLB misses on read requests
system.cpu00.dtb.wrAccesses                     25997                       # TLB accesses on write requests
system.cpu00.dtb.wrMisses                         624                       # TLB misses on write requests
system.cpu00.idle_fraction                          0                       # Percentage of idle cycles
system.cpu00.itb.rdAccesses                         0                       # TLB accesses on read requests
system.cpu00.itb.rdMisses                           0                       # TLB misses on read requests
system.cpu00.itb.wrAccesses                    331299                       # TLB accesses on write requests
system.cpu00.itb.wrMisses                         402                       # TLB misses on write requests
system.cpu00.not_idle_fraction                      1                       # Percentage of non-idle cycles
system.cpu00.numCycles                        1936341                       # number of cpu cycles simulated
system.cpu00.numWorkItemsCompleted                  0                       # number of work items this cpu completed
system.cpu00.numWorkItemsStarted                    0                       # number of work items this cpu started
system.cpu00.num_busy_cycles                  1936341                       # Number of busy cycles
system.cpu00.num_cc_register_reads             310815                       # number of times the CC registers were read
system.cpu00.num_cc_register_writes            184410                       # number of times the CC registers were written
system.cpu00.num_conditional_control_insts        44666                       # number of instructions that are conditional controls
system.cpu00.num_fp_alu_accesses                20463                       # Number of float alu accesses
system.cpu00.num_fp_insts                       20463                       # number of float instructions
system.cpu00.num_fp_register_reads              30249                       # number of times the floating registers were read
system.cpu00.num_fp_register_writes             14138                       # number of times the floating registers were written
system.cpu00.num_func_calls                      3976                       # number of times a function call or return occured
system.cpu00.num_idle_cycles                        0                       # Number of idle cycles
system.cpu00.num_int_alu_accesses              461080                       # Number of integer alu accesses
system.cpu00.num_int_insts                     461080                       # number of integer instructions
system.cpu00.num_int_register_reads            902077                       # number of times the integer registers were read
system.cpu00.num_int_register_writes           386863                       # number of times the integer registers were written
system.cpu00.num_load_insts                     62284                       # Number of load instructions
system.cpu00.num_mem_refs                       88273                       # number of memory refs
system.cpu00.num_store_insts                    25989                       # Number of store instructions
system.cpu00.num_vec_alu_accesses                   0                       # Number of vector alu accesses
system.cpu00.num_vec_insts                          0                       # number of vector instructions
system.cpu00.num_vec_register_reads                 0                       # number of times the vector registers were read
system.cpu00.num_vec_register_writes                0                       # number of times the vector registers were written
system.cpu00.op_class::No_OpClass                4011      0.84%      0.84% # Class of executed instruction
system.cpu00.op_class::IntAlu                  369520     77.62%     78.46% # Class of executed instruction
system.cpu00.op_class::IntMult                    272      0.06%     78.52% # Class of executed instruction
system.cpu00.op_class::IntDiv                    2929      0.62%     79.14% # Class of executed instruction
system.cpu00.op_class::FloatAdd                   511      0.11%     79.24% # Class of executed instruction
system.cpu00.op_class::FloatCmp                     0      0.00%     79.24% # Class of executed instruction
system.cpu00.op_class::FloatCvt                   192      0.04%     79.28% # Class of executed instruction
system.cpu00.op_class::FloatMult                    0      0.00%     79.28% # Class of executed instruction
system.cpu00.op_class::FloatMultAcc                 0      0.00%     79.28% # Class of executed instruction
system.cpu00.op_class::FloatDiv                     0      0.00%     79.28% # Class of executed instruction
system.cpu00.op_class::FloatMisc                    0      0.00%     79.28% # Class of executed instruction
system.cpu00.op_class::FloatSqrt                    0      0.00%     79.28% # Class of executed instruction
system.cpu00.op_class::SimdAdd                   1690      0.35%     79.64% # Class of executed instruction
system.cpu00.op_class::SimdAddAcc                   0      0.00%     79.64% # Class of executed instruction
system.cpu00.op_class::SimdAlu                   2724      0.57%     80.21% # Class of executed instruction
system.cpu00.op_class::SimdCmp                     12      0.00%     80.21% # Class of executed instruction
system.cpu00.op_class::SimdCvt                   2912      0.61%     80.82% # Class of executed instruction
system.cpu00.op_class::SimdMisc                  2061      0.43%     81.26% # Class of executed instruction
system.cpu00.op_class::SimdMult                     0      0.00%     81.26% # Class of executed instruction
system.cpu00.op_class::SimdMultAcc                  0      0.00%     81.26% # Class of executed instruction
system.cpu00.op_class::SimdShift                  951      0.20%     81.46% # Class of executed instruction
system.cpu00.op_class::SimdShiftAcc                 0      0.00%     81.46% # Class of executed instruction
system.cpu00.op_class::SimdDiv                      0      0.00%     81.46% # Class of executed instruction
system.cpu00.op_class::SimdSqrt                     0      0.00%     81.46% # Class of executed instruction
system.cpu00.op_class::SimdFloatAdd                 0      0.00%     81.46% # Class of executed instruction
system.cpu00.op_class::SimdFloatAlu                 0      0.00%     81.46% # Class of executed instruction
system.cpu00.op_class::SimdFloatCmp                 0      0.00%     81.46% # Class of executed instruction
system.cpu00.op_class::SimdFloatCvt                 0      0.00%     81.46% # Class of executed instruction
system.cpu00.op_class::SimdFloatDiv                 0      0.00%     81.46% # Class of executed instruction
system.cpu00.op_class::SimdFloatMisc                0      0.00%     81.46% # Class of executed instruction
system.cpu00.op_class::SimdFloatMult                0      0.00%     81.46% # Class of executed instruction
system.cpu00.op_class::SimdFloatMultAcc             0      0.00%     81.46% # Class of executed instruction
system.cpu00.op_class::SimdFloatSqrt                0      0.00%     81.46% # Class of executed instruction
system.cpu00.op_class::SimdReduceAdd                0      0.00%     81.46% # Class of executed instruction
system.cpu00.op_class::SimdReduceAlu                0      0.00%     81.46% # Class of executed instruction
system.cpu00.op_class::SimdReduceCmp                0      0.00%     81.46% # Class of executed instruction
system.cpu00.op_class::SimdFloatReduceAdd            0      0.00%     81.46% # Class of executed instruction
system.cpu00.op_class::SimdFloatReduceCmp            0      0.00%     81.46% # Class of executed instruction
system.cpu00.op_class::SimdAes                      0      0.00%     81.46% # Class of executed instruction
system.cpu00.op_class::SimdAesMix                   0      0.00%     81.46% # Class of executed instruction
system.cpu00.op_class::SimdSha1Hash                 0      0.00%     81.46% # Class of executed instruction
system.cpu00.op_class::SimdSha1Hash2                0      0.00%     81.46% # Class of executed instruction
system.cpu00.op_class::SimdSha256Hash               0      0.00%     81.46% # Class of executed instruction
system.cpu00.op_class::SimdSha256Hash2              0      0.00%     81.46% # Class of executed instruction
system.cpu00.op_class::SimdShaSigma2                0      0.00%     81.46% # Class of executed instruction
system.cpu00.op_class::SimdShaSigma3                0      0.00%     81.46% # Class of executed instruction
system.cpu00.op_class::SimdPredAlu                  0      0.00%     81.46% # Class of executed instruction
system.cpu00.op_class::MemRead                  58342     12.26%     93.71% # Class of executed instruction
system.cpu00.op_class::MemWrite                 21349      4.48%     98.20% # Class of executed instruction
system.cpu00.op_class::FloatMemRead              3942      0.83%     99.03% # Class of executed instruction
system.cpu00.op_class::FloatMemWrite             4640      0.97%    100.00% # Class of executed instruction
system.cpu00.op_class::IprAccess                    0      0.00%    100.00% # Class of executed instruction
system.cpu00.op_class::InstPrefetch                 0      0.00%    100.00% # Class of executed instruction
system.cpu00.op_class::total                   476058                       # Class of executed instruction
system.cpu00.workload.numSyscalls                 123                       # Number of system calls
system.cpu01.Branches                             780                       # Number of branches fetched
system.cpu01.committedInsts                     29833                       # Number of instructions committed
system.cpu01.committedOps                       46775                       # Number of ops (including micro ops) committed
system.cpu01.dtb.rdAccesses                       991                       # TLB accesses on read requests
system.cpu01.dtb.rdMisses                          67                       # TLB misses on read requests
system.cpu01.dtb.wrAccesses                       969                       # TLB accesses on write requests
system.cpu01.dtb.wrMisses                          20                       # TLB misses on write requests
system.cpu01.idle_fraction                   0.922867                       # Percentage of idle cycles
system.cpu01.itb.rdAccesses                         0                       # TLB accesses on read requests
system.cpu01.itb.rdMisses                           0                       # TLB misses on read requests
system.cpu01.itb.wrAccesses                     43250                       # TLB accesses on write requests
system.cpu01.itb.wrMisses                          58                       # TLB misses on write requests
system.cpu01.not_idle_fraction               0.077133                       # Percentage of non-idle cycles
system.cpu01.numCycles                        1936340                       # number of cpu cycles simulated
system.cpu01.numWorkItemsCompleted                  0                       # number of work items this cpu completed
system.cpu01.numWorkItemsStarted                    0                       # number of work items this cpu started
system.cpu01.num_busy_cycles             149354.924713                       # Number of busy cycles
system.cpu01.num_cc_register_reads               4572                       # number of times the CC registers were read
system.cpu01.num_cc_register_writes              2524                       # number of times the CC registers were written
system.cpu01.num_conditional_control_insts          659                       # number of instructions that are conditional controls
system.cpu01.num_fp_alu_accesses                39951                       # Number of float alu accesses
system.cpu01.num_fp_insts                       39951                       # number of float instructions
system.cpu01.num_fp_register_reads              87792                       # number of times the floating registers were read
system.cpu01.num_fp_register_writes             37063                       # number of times the floating registers were written
system.cpu01.num_func_calls                        77                       # number of times a function call or return occured
system.cpu01.num_idle_cycles             1786985.075287                       # Number of idle cycles
system.cpu01.num_int_alu_accesses               12210                       # Number of integer alu accesses
system.cpu01.num_int_insts                      12210                       # number of integer instructions
system.cpu01.num_int_register_reads             19718                       # number of times the integer registers were read
system.cpu01.num_int_register_writes             7944                       # number of times the integer registers were written
system.cpu01.num_load_insts                       991                       # Number of load instructions
system.cpu01.num_mem_refs                        1960                       # number of memory refs
system.cpu01.num_store_insts                      969                       # Number of store instructions
system.cpu01.num_vec_alu_accesses                   0                       # Number of vector alu accesses
system.cpu01.num_vec_insts                          0                       # number of vector instructions
system.cpu01.num_vec_register_reads                 0                       # number of times the vector registers were read
system.cpu01.num_vec_register_writes                0                       # number of times the vector registers were written
system.cpu01.op_class::No_OpClass                 133      0.28%      0.28% # Class of executed instruction
system.cpu01.op_class::IntAlu                   15514     33.17%     33.45% # Class of executed instruction
system.cpu01.op_class::IntMult                      0      0.00%     33.45% # Class of executed instruction
system.cpu01.op_class::IntDiv                      26      0.06%     33.51% # Class of executed instruction
system.cpu01.op_class::FloatAdd                    31      0.07%     33.57% # Class of executed instruction
system.cpu01.op_class::FloatCmp                     0      0.00%     33.57% # Class of executed instruction
system.cpu01.op_class::FloatCvt                    32      0.07%     33.64% # Class of executed instruction
system.cpu01.op_class::FloatMult                    0      0.00%     33.64% # Class of executed instruction
system.cpu01.op_class::FloatMultAcc                 0      0.00%     33.64% # Class of executed instruction
system.cpu01.op_class::FloatDiv                     0      0.00%     33.64% # Class of executed instruction
system.cpu01.op_class::FloatMisc                    0      0.00%     33.64% # Class of executed instruction
system.cpu01.op_class::FloatSqrt                    0      0.00%     33.64% # Class of executed instruction
system.cpu01.op_class::SimdAdd                    402      0.86%     34.50% # Class of executed instruction
system.cpu01.op_class::SimdAddAcc                   0      0.00%     34.50% # Class of executed instruction
system.cpu01.op_class::SimdAlu                   5059     10.82%     45.32% # Class of executed instruction
system.cpu01.op_class::SimdCmp                      0      0.00%     45.32% # Class of executed instruction
system.cpu01.op_class::SimdCvt                    120      0.26%     45.57% # Class of executed instruction
system.cpu01.op_class::SimdMisc                  4976     10.64%     56.21% # Class of executed instruction
system.cpu01.op_class::SimdMult                     0      0.00%     56.21% # Class of executed instruction
system.cpu01.op_class::SimdMultAcc                  0      0.00%     56.21% # Class of executed instruction
system.cpu01.op_class::SimdShift                  198      0.42%     56.63% # Class of executed instruction
system.cpu01.op_class::SimdShiftAcc                 0      0.00%     56.63% # Class of executed instruction
system.cpu01.op_class::SimdDiv                      0      0.00%     56.63% # Class of executed instruction
system.cpu01.op_class::SimdSqrt                     0      0.00%     56.63% # Class of executed instruction
system.cpu01.op_class::SimdFloatAdd              4437      9.49%     66.12% # Class of executed instruction
system.cpu01.op_class::SimdFloatAlu                 0      0.00%     66.12% # Class of executed instruction
system.cpu01.op_class::SimdFloatCmp                 0      0.00%     66.12% # Class of executed instruction
system.cpu01.op_class::SimdFloatCvt              5016     10.72%     76.84% # Class of executed instruction
system.cpu01.op_class::SimdFloatDiv                 0      0.00%     76.84% # Class of executed instruction
system.cpu01.op_class::SimdFloatMisc                0      0.00%     76.84% # Class of executed instruction
system.cpu01.op_class::SimdFloatMult             8873     18.97%     95.81% # Class of executed instruction
system.cpu01.op_class::SimdFloatMultAcc             0      0.00%     95.81% # Class of executed instruction
system.cpu01.op_class::SimdFloatSqrt                0      0.00%     95.81% # Class of executed instruction
system.cpu01.op_class::SimdReduceAdd                0      0.00%     95.81% # Class of executed instruction
system.cpu01.op_class::SimdReduceAlu                0      0.00%     95.81% # Class of executed instruction
system.cpu01.op_class::SimdReduceCmp                0      0.00%     95.81% # Class of executed instruction
system.cpu01.op_class::SimdFloatReduceAdd            0      0.00%     95.81% # Class of executed instruction
system.cpu01.op_class::SimdFloatReduceCmp            0      0.00%     95.81% # Class of executed instruction
system.cpu01.op_class::SimdAes                      0      0.00%     95.81% # Class of executed instruction
system.cpu01.op_class::SimdAesMix                   0      0.00%     95.81% # Class of executed instruction
system.cpu01.op_class::SimdSha1Hash                 0      0.00%     95.81% # Class of executed instruction
system.cpu01.op_class::SimdSha1Hash2                0      0.00%     95.81% # Class of executed instruction
system.cpu01.op_class::SimdSha256Hash               0      0.00%     95.81% # Class of executed instruction
system.cpu01.op_class::SimdSha256Hash2              0      0.00%     95.81% # Class of executed instruction
system.cpu01.op_class::SimdShaSigma2                0      0.00%     95.81% # Class of executed instruction
system.cpu01.op_class::SimdShaSigma3                0      0.00%     95.81% # Class of executed instruction
system.cpu01.op_class::SimdPredAlu                  0      0.00%     95.81% # Class of executed instruction
system.cpu01.op_class::MemRead                    653      1.40%     97.21% # Class of executed instruction
system.cpu01.op_class::MemWrite                   649      1.39%     98.59% # Class of executed instruction
system.cpu01.op_class::FloatMemRead               338      0.72%     99.32% # Class of executed instruction
system.cpu01.op_class::FloatMemWrite              320      0.68%    100.00% # Class of executed instruction
system.cpu01.op_class::IprAccess                    0      0.00%    100.00% # Class of executed instruction
system.cpu01.op_class::InstPrefetch                 0      0.00%    100.00% # Class of executed instruction
system.cpu01.op_class::total                    46777                       # Class of executed instruction
system.cpu02.Branches                             647                       # Number of branches fetched
system.cpu02.committedInsts                     27706                       # Number of instructions committed
system.cpu02.committedOps                       43049                       # Number of ops (including micro ops) committed
system.cpu02.dtb.rdAccesses                       674                       # TLB accesses on read requests
system.cpu02.dtb.rdMisses                          69                       # TLB misses on read requests
system.cpu02.dtb.wrAccesses                       809                       # TLB accesses on write requests
system.cpu02.dtb.wrMisses                          22                       # TLB misses on write requests
system.cpu02.idle_fraction                   0.928100                       # Percentage of idle cycles
system.cpu02.itb.rdAccesses                         0                       # TLB accesses on read requests
system.cpu02.itb.rdMisses                           0                       # TLB misses on read requests
system.cpu02.itb.wrAccesses                     40250                       # TLB accesses on write requests
system.cpu02.itb.wrMisses                          58                       # TLB misses on write requests
system.cpu02.not_idle_fraction               0.071900                       # Percentage of non-idle cycles
system.cpu02.numCycles                        1936340                       # number of cpu cycles simulated
system.cpu02.numWorkItemsCompleted                  0                       # number of work items this cpu completed
system.cpu02.numWorkItemsStarted                    0                       # number of work items this cpu started
system.cpu02.num_busy_cycles             139221.929957                       # Number of busy cycles
system.cpu02.num_cc_register_reads               3638                       # number of times the CC registers were read
system.cpu02.num_cc_register_writes              2066                       # number of times the CC registers were written
system.cpu02.num_conditional_control_insts          559                       # number of instructions that are conditional controls
system.cpu02.num_fp_alu_accesses                37700                       # Number of float alu accesses
system.cpu02.num_fp_insts                       37700                       # number of float instructions
system.cpu02.num_fp_register_reads              83006                       # number of times the floating registers were read
system.cpu02.num_fp_register_writes             35008                       # number of times the floating registers were written
system.cpu02.num_func_calls                        55                       # number of times a function call or return occured
system.cpu02.num_idle_cycles             1797118.070043                       # Number of idle cycles
system.cpu02.num_int_alu_accesses               10371                       # Number of integer alu accesses
system.cpu02.num_int_insts                      10371                       # number of integer instructions
system.cpu02.num_int_register_reads             16081                       # number of times the integer registers were read
system.cpu02.num_int_register_writes             6554                       # number of times the integer registers were written
system.cpu02.num_load_insts                       674                       # Number of load instructions
system.cpu02.num_mem_refs                        1483                       # number of memory refs
system.cpu02.num_store_insts                      809                       # Number of store instructions
system.cpu02.num_vec_alu_accesses                   0                       # Number of vector alu accesses
system.cpu02.num_vec_insts                          0                       # number of vector instructions
system.cpu02.num_vec_register_reads                 0                       # number of times the vector registers were read
system.cpu02.num_vec_register_writes                0                       # number of times the vector registers were written
system.cpu02.op_class::No_OpClass                 103      0.24%      0.24% # Class of executed instruction
system.cpu02.op_class::IntAlu                   13914     32.32%     32.56% # Class of executed instruction
system.cpu02.op_class::IntMult                      0      0.00%     32.56% # Class of executed instruction
system.cpu02.op_class::IntDiv                      11      0.03%     32.58% # Class of executed instruction
system.cpu02.op_class::FloatAdd                    20      0.05%     32.63% # Class of executed instruction
system.cpu02.op_class::FloatCmp                     0      0.00%     32.63% # Class of executed instruction
system.cpu02.op_class::FloatCvt                    16      0.04%     32.67% # Class of executed instruction
system.cpu02.op_class::FloatMult                    0      0.00%     32.67% # Class of executed instruction
system.cpu02.op_class::FloatMultAcc                 0      0.00%     32.67% # Class of executed instruction
system.cpu02.op_class::FloatDiv                     0      0.00%     32.67% # Class of executed instruction
system.cpu02.op_class::FloatMisc                    0      0.00%     32.67% # Class of executed instruction
system.cpu02.op_class::FloatSqrt                    0      0.00%     32.67% # Class of executed instruction
system.cpu02.op_class::SimdAdd                    388      0.90%     33.57% # Class of executed instruction
system.cpu02.op_class::SimdAddAcc                   0      0.00%     33.57% # Class of executed instruction
system.cpu02.op_class::SimdAlu                   4782     11.11%     44.68% # Class of executed instruction
system.cpu02.op_class::SimdCmp                      0      0.00%     44.68% # Class of executed instruction
system.cpu02.op_class::SimdCvt                     92      0.21%     44.89% # Class of executed instruction
system.cpu02.op_class::SimdMisc                  4716     10.95%     55.84% # Class of executed instruction
system.cpu02.op_class::SimdMult                     0      0.00%     55.84% # Class of executed instruction
system.cpu02.op_class::SimdMultAcc                  0      0.00%     55.84% # Class of executed instruction
system.cpu02.op_class::SimdShift                  193      0.45%     56.29% # Class of executed instruction
system.cpu02.op_class::SimdShiftAcc                 0      0.00%     56.29% # Class of executed instruction
system.cpu02.op_class::SimdDiv                      0      0.00%     56.29% # Class of executed instruction
system.cpu02.op_class::SimdSqrt                     0      0.00%     56.29% # Class of executed instruction
system.cpu02.op_class::SimdFloatAdd              4199      9.75%     66.05% # Class of executed instruction
system.cpu02.op_class::SimdFloatAlu                 0      0.00%     66.05% # Class of executed instruction
system.cpu02.op_class::SimdFloatCmp                 0      0.00%     66.05% # Class of executed instruction
system.cpu02.op_class::SimdFloatCvt              4756     11.05%     77.09% # Class of executed instruction
system.cpu02.op_class::SimdFloatDiv                 0      0.00%     77.09% # Class of executed instruction
system.cpu02.op_class::SimdFloatMisc                0      0.00%     77.09% # Class of executed instruction
system.cpu02.op_class::SimdFloatMult             8379     19.46%     96.56% # Class of executed instruction
system.cpu02.op_class::SimdFloatMultAcc             0      0.00%     96.56% # Class of executed instruction
system.cpu02.op_class::SimdFloatSqrt                0      0.00%     96.56% # Class of executed instruction
system.cpu02.op_class::SimdReduceAdd                0      0.00%     96.56% # Class of executed instruction
system.cpu02.op_class::SimdReduceAlu                0      0.00%     96.56% # Class of executed instruction
system.cpu02.op_class::SimdReduceCmp                0      0.00%     96.56% # Class of executed instruction
system.cpu02.op_class::SimdFloatReduceAdd            0      0.00%     96.56% # Class of executed instruction
system.cpu02.op_class::SimdFloatReduceCmp            0      0.00%     96.56% # Class of executed instruction
system.cpu02.op_class::SimdAes                      0      0.00%     96.56% # Class of executed instruction
system.cpu02.op_class::SimdAesMix                   0      0.00%     96.56% # Class of executed instruction
system.cpu02.op_class::SimdSha1Hash                 0      0.00%     96.56% # Class of executed instruction
system.cpu02.op_class::SimdSha1Hash2                0      0.00%     96.56% # Class of executed instruction
system.cpu02.op_class::SimdSha256Hash               0      0.00%     96.56% # Class of executed instruction
system.cpu02.op_class::SimdSha256Hash2              0      0.00%     96.56% # Class of executed instruction
system.cpu02.op_class::SimdShaSigma2                0      0.00%     96.56% # Class of executed instruction
system.cpu02.op_class::SimdShaSigma3                0      0.00%     96.56% # Class of executed instruction
system.cpu02.op_class::SimdPredAlu                  0      0.00%     96.56% # Class of executed instruction
system.cpu02.op_class::MemRead                    414      0.96%     97.52% # Class of executed instruction
system.cpu02.op_class::MemWrite                   525      1.22%     98.74% # Class of executed instruction
system.cpu02.op_class::FloatMemRead               260      0.60%     99.34% # Class of executed instruction
system.cpu02.op_class::FloatMemWrite              284      0.66%    100.00% # Class of executed instruction
system.cpu02.op_class::IprAccess                    0      0.00%    100.00% # Class of executed instruction
system.cpu02.op_class::InstPrefetch                 0      0.00%    100.00% # Class of executed instruction
system.cpu02.op_class::total                    43052                       # Class of executed instruction
system.cpu03.Branches                             621                       # Number of branches fetched
system.cpu03.committedInsts                     23944                       # Number of instructions committed
system.cpu03.committedOps                       37432                       # Number of ops (including micro ops) committed
system.cpu03.dtb.rdAccesses                       641                       # TLB accesses on read requests
system.cpu03.dtb.rdMisses                          80                       # TLB misses on read requests
system.cpu03.dtb.wrAccesses                       781                       # TLB accesses on write requests
system.cpu03.dtb.wrMisses                          18                       # TLB misses on write requests
system.cpu03.idle_fraction                   0.932689                       # Percentage of idle cycles
system.cpu03.itb.rdAccesses                         0                       # TLB accesses on read requests
system.cpu03.itb.rdMisses                           0                       # TLB misses on read requests
system.cpu03.itb.wrAccesses                     34764                       # TLB accesses on write requests
system.cpu03.itb.wrMisses                          64                       # TLB misses on write requests
system.cpu03.not_idle_fraction               0.067311                       # Percentage of non-idle cycles
system.cpu03.numCycles                        1936340                       # number of cpu cycles simulated
system.cpu03.numWorkItemsCompleted                  0                       # number of work items this cpu completed
system.cpu03.numWorkItemsStarted                    0                       # number of work items this cpu started
system.cpu03.num_busy_cycles             130337.934554                       # Number of busy cycles
system.cpu03.num_cc_register_reads               3496                       # number of times the CC registers were read
system.cpu03.num_cc_register_writes              1916                       # number of times the CC registers were written
system.cpu03.num_conditional_control_insts          532                       # number of instructions that are conditional controls
system.cpu03.num_fp_alu_accesses                32324                       # Number of float alu accesses
system.cpu03.num_fp_insts                       32324                       # number of float instructions
system.cpu03.num_fp_register_reads              71110                       # number of times the floating registers were read
system.cpu03.num_fp_register_writes             29987                       # number of times the floating registers were written
system.cpu03.num_func_calls                        55                       # number of times a function call or return occured
system.cpu03.num_idle_cycles             1806002.065446                       # Number of idle cycles
system.cpu03.num_int_alu_accesses                9415                       # Number of integer alu accesses
system.cpu03.num_int_insts                       9415                       # number of integer instructions
system.cpu03.num_int_register_reads             14912                       # number of times the integer registers were read
system.cpu03.num_int_register_writes             6018                       # number of times the integer registers were written
system.cpu03.num_load_insts                       641                       # Number of load instructions
system.cpu03.num_mem_refs                        1422                       # number of memory refs
system.cpu03.num_store_insts                      781                       # Number of store instructions
system.cpu03.num_vec_alu_accesses                   0                       # Number of vector alu accesses
system.cpu03.num_vec_insts                          0                       # number of vector instructions
system.cpu03.num_vec_register_reads                 0                       # number of times the vector registers were read
system.cpu03.num_vec_register_writes                0                       # number of times the vector registers were written
system.cpu03.op_class::No_OpClass                 107      0.29%      0.29% # Class of executed instruction
system.cpu03.op_class::IntAlu                   12336     32.95%     33.24% # Class of executed instruction
system.cpu03.op_class::IntMult                      0      0.00%     33.24% # Class of executed instruction
system.cpu03.op_class::IntDiv                      15      0.04%     33.28% # Class of executed instruction
system.cpu03.op_class::FloatAdd                    21      0.06%     33.34% # Class of executed instruction
system.cpu03.op_class::FloatCmp                     0      0.00%     33.34% # Class of executed instruction
system.cpu03.op_class::FloatCvt                    16      0.04%     33.38% # Class of executed instruction
system.cpu03.op_class::FloatMult                    0      0.00%     33.38% # Class of executed instruction
system.cpu03.op_class::FloatMultAcc                 0      0.00%     33.38% # Class of executed instruction
system.cpu03.op_class::FloatDiv                     0      0.00%     33.38% # Class of executed instruction
system.cpu03.op_class::FloatMisc                    0      0.00%     33.38% # Class of executed instruction
system.cpu03.op_class::FloatSqrt                    0      0.00%     33.38% # Class of executed instruction
system.cpu03.op_class::SimdAdd                    388      1.04%     34.41% # Class of executed instruction
system.cpu03.op_class::SimdAddAcc                   0      0.00%     34.41% # Class of executed instruction
system.cpu03.op_class::SimdAlu                   4069     10.87%     45.28% # Class of executed instruction
system.cpu03.op_class::SimdCmp                      0      0.00%     45.28% # Class of executed instruction
system.cpu03.op_class::SimdCvt                     92      0.25%     45.53% # Class of executed instruction
system.cpu03.op_class::SimdMisc                  4034     10.78%     56.31% # Class of executed instruction
system.cpu03.op_class::SimdMult                     0      0.00%     56.31% # Class of executed instruction
system.cpu03.op_class::SimdMultAcc                  0      0.00%     56.31% # Class of executed instruction
system.cpu03.op_class::SimdShift                  191      0.51%     56.82% # Class of executed instruction
system.cpu03.op_class::SimdShiftAcc                 0      0.00%     56.82% # Class of executed instruction
system.cpu03.op_class::SimdDiv                      0      0.00%     56.82% # Class of executed instruction
system.cpu03.op_class::SimdSqrt                     0      0.00%     56.82% # Class of executed instruction
system.cpu03.op_class::SimdFloatAdd              3572      9.54%     66.36% # Class of executed instruction
system.cpu03.op_class::SimdFloatAlu                 0      0.00%     66.36% # Class of executed instruction
system.cpu03.op_class::SimdFloatCmp                 0      0.00%     66.36% # Class of executed instruction
system.cpu03.op_class::SimdFloatCvt              4046     10.81%     77.17% # Class of executed instruction
system.cpu03.op_class::SimdFloatDiv                 0      0.00%     77.17% # Class of executed instruction
system.cpu03.op_class::SimdFloatMisc                0      0.00%     77.17% # Class of executed instruction
system.cpu03.op_class::SimdFloatMult             7126     19.04%     96.20% # Class of executed instruction
system.cpu03.op_class::SimdFloatMultAcc             0      0.00%     96.20% # Class of executed instruction
system.cpu03.op_class::SimdFloatSqrt                0      0.00%     96.20% # Class of executed instruction
system.cpu03.op_class::SimdReduceAdd                0      0.00%     96.20% # Class of executed instruction
system.cpu03.op_class::SimdReduceAlu                0      0.00%     96.20% # Class of executed instruction
system.cpu03.op_class::SimdReduceCmp                0      0.00%     96.20% # Class of executed instruction
system.cpu03.op_class::SimdFloatReduceAdd            0      0.00%     96.20% # Class of executed instruction
system.cpu03.op_class::SimdFloatReduceCmp            0      0.00%     96.20% # Class of executed instruction
system.cpu03.op_class::SimdAes                      0      0.00%     96.20% # Class of executed instruction
system.cpu03.op_class::SimdAesMix                   0      0.00%     96.20% # Class of executed instruction
system.cpu03.op_class::SimdSha1Hash                 0      0.00%     96.20% # Class of executed instruction
system.cpu03.op_class::SimdSha1Hash2                0      0.00%     96.20% # Class of executed instruction
system.cpu03.op_class::SimdSha256Hash               0      0.00%     96.20% # Class of executed instruction
system.cpu03.op_class::SimdSha256Hash2              0      0.00%     96.20% # Class of executed instruction
system.cpu03.op_class::SimdShaSigma2                0      0.00%     96.20% # Class of executed instruction
system.cpu03.op_class::SimdShaSigma3                0      0.00%     96.20% # Class of executed instruction
system.cpu03.op_class::SimdPredAlu                  0      0.00%     96.20% # Class of executed instruction
system.cpu03.op_class::MemRead                    409      1.09%     97.29% # Class of executed instruction
system.cpu03.op_class::MemWrite                   497      1.33%     98.62% # Class of executed instruction
system.cpu03.op_class::FloatMemRead               232      0.62%     99.24% # Class of executed instruction
system.cpu03.op_class::FloatMemWrite              284      0.76%    100.00% # Class of executed instruction
system.cpu03.op_class::IprAccess                    0      0.00%    100.00% # Class of executed instruction
system.cpu03.op_class::InstPrefetch                 0      0.00%    100.00% # Class of executed instruction
system.cpu03.op_class::total                    37435                       # Class of executed instruction
system.cpu04.Branches                             494                       # Number of branches fetched
system.cpu04.committedInsts                     26826                       # Number of instructions committed
system.cpu04.committedOps                       41191                       # Number of ops (including micro ops) committed
system.cpu04.dtb.rdAccesses                       373                       # TLB accesses on read requests
system.cpu04.dtb.rdMisses                          50                       # TLB misses on read requests
system.cpu04.dtb.wrAccesses                       669                       # TLB accesses on write requests
system.cpu04.dtb.wrMisses                          20                       # TLB misses on write requests
system.cpu04.idle_fraction                   0.937207                       # Percentage of idle cycles
system.cpu04.itb.rdAccesses                         0                       # TLB accesses on read requests
system.cpu04.itb.rdMisses                           0                       # TLB misses on read requests
system.cpu04.itb.wrAccesses                     39072                       # TLB accesses on write requests
system.cpu04.itb.wrMisses                          54                       # TLB misses on write requests
system.cpu04.not_idle_fraction               0.062793                       # Percentage of non-idle cycles
system.cpu04.numCycles                        1936340                       # number of cpu cycles simulated
system.cpu04.numWorkItemsCompleted                  0                       # number of work items this cpu completed
system.cpu04.numWorkItemsStarted                    0                       # number of work items this cpu started
system.cpu04.num_busy_cycles             121588.939081                       # Number of busy cycles
system.cpu04.num_cc_register_reads               2513                       # number of times the CC registers were read
system.cpu04.num_cc_register_writes              1516                       # number of times the CC registers were written
system.cpu04.num_conditional_control_insts          434                       # number of instructions that are conditional controls
system.cpu04.num_fp_alu_accesses                37405                       # Number of float alu accesses
system.cpu04.num_fp_insts                       37405                       # number of float instructions
system.cpu04.num_fp_register_reads              82573                       # number of times the floating registers were read
system.cpu04.num_fp_register_writes             34786                       # number of times the floating registers were written
system.cpu04.num_func_calls                        37                       # number of times a function call or return occured
system.cpu04.num_idle_cycles             1814751.060919                       # Number of idle cycles
system.cpu04.num_int_alu_accesses                8682                       # Number of integer alu accesses
system.cpu04.num_int_insts                       8682                       # number of integer instructions
system.cpu04.num_int_register_reads             12559                       # number of times the integer registers were read
system.cpu04.num_int_register_writes             5201                       # number of times the integer registers were written
system.cpu04.num_load_insts                       373                       # Number of load instructions
system.cpu04.num_mem_refs                        1042                       # number of memory refs
system.cpu04.num_store_insts                      669                       # Number of store instructions
system.cpu04.num_vec_alu_accesses                   0                       # Number of vector alu accesses
system.cpu04.num_vec_insts                          0                       # number of vector instructions
system.cpu04.num_vec_register_reads                 0                       # number of times the vector registers were read
system.cpu04.num_vec_register_writes                0                       # number of times the vector registers were written
system.cpu04.op_class::No_OpClass                  77      0.19%      0.19% # Class of executed instruction
system.cpu04.op_class::IntAlu                   12709     30.85%     31.04% # Class of executed instruction
system.cpu04.op_class::IntMult                      0      0.00%     31.04% # Class of executed instruction
system.cpu04.op_class::IntDiv                       0      0.00%     31.04% # Class of executed instruction
system.cpu04.op_class::FloatAdd                    10      0.02%     31.06% # Class of executed instruction
system.cpu04.op_class::FloatCmp                     0      0.00%     31.06% # Class of executed instruction
system.cpu04.op_class::FloatCvt                     0      0.00%     31.06% # Class of executed instruction
system.cpu04.op_class::FloatMult                    0      0.00%     31.06% # Class of executed instruction
system.cpu04.op_class::FloatMultAcc                 0      0.00%     31.06% # Class of executed instruction
system.cpu04.op_class::FloatDiv                     0      0.00%     31.06% # Class of executed instruction
system.cpu04.op_class::FloatMisc                    0      0.00%     31.06% # Class of executed instruction
system.cpu04.op_class::FloatSqrt                    0      0.00%     31.06% # Class of executed instruction
system.cpu04.op_class::SimdAdd                    374      0.91%     31.97% # Class of executed instruction
system.cpu04.op_class::SimdAddAcc                   0      0.00%     31.97% # Class of executed instruction
system.cpu04.op_class::SimdAlu                   4750     11.53%     43.50% # Class of executed instruction
system.cpu04.op_class::SimdCmp                      0      0.00%     43.50% # Class of executed instruction
system.cpu04.op_class::SimdCvt                     64      0.16%     43.66% # Class of executed instruction
system.cpu04.op_class::SimdMisc                  4689     11.38%     55.04% # Class of executed instruction
system.cpu04.op_class::SimdMult                     0      0.00%     55.04% # Class of executed instruction
system.cpu04.op_class::SimdMultAcc                  0      0.00%     55.04% # Class of executed instruction
system.cpu04.op_class::SimdShift                  186      0.45%     55.49% # Class of executed instruction
system.cpu04.op_class::SimdShiftAcc                 0      0.00%     55.49% # Class of executed instruction
system.cpu04.op_class::SimdDiv                      0      0.00%     55.49% # Class of executed instruction
system.cpu04.op_class::SimdSqrt                     0      0.00%     55.49% # Class of executed instruction
system.cpu04.op_class::SimdFloatAdd              4189     10.17%     65.66% # Class of executed instruction
system.cpu04.op_class::SimdFloatAlu                 0      0.00%     65.66% # Class of executed instruction
system.cpu04.op_class::SimdFloatCmp                 0      0.00%     65.66% # Class of executed instruction
system.cpu04.op_class::SimdFloatCvt              4743     11.51%     77.17% # Class of executed instruction
system.cpu04.op_class::SimdFloatDiv                 0      0.00%     77.17% # Class of executed instruction
system.cpu04.op_class::SimdFloatMisc                0      0.00%     77.17% # Class of executed instruction
system.cpu04.op_class::SimdFloatMult             8361     20.30%     97.47% # Class of executed instruction
system.cpu04.op_class::SimdFloatMultAcc             0      0.00%     97.47% # Class of executed instruction
system.cpu04.op_class::SimdFloatSqrt                0      0.00%     97.47% # Class of executed instruction
system.cpu04.op_class::SimdReduceAdd                0      0.00%     97.47% # Class of executed instruction
system.cpu04.op_class::SimdReduceAlu                0      0.00%     97.47% # Class of executed instruction
system.cpu04.op_class::SimdReduceCmp                0      0.00%     97.47% # Class of executed instruction
system.cpu04.op_class::SimdFloatReduceAdd            0      0.00%     97.47% # Class of executed instruction
system.cpu04.op_class::SimdFloatReduceCmp            0      0.00%     97.47% # Class of executed instruction
system.cpu04.op_class::SimdAes                      0      0.00%     97.47% # Class of executed instruction
system.cpu04.op_class::SimdAesMix                   0      0.00%     97.47% # Class of executed instruction
system.cpu04.op_class::SimdSha1Hash                 0      0.00%     97.47% # Class of executed instruction
system.cpu04.op_class::SimdSha1Hash2                0      0.00%     97.47% # Class of executed instruction
system.cpu04.op_class::SimdSha256Hash               0      0.00%     97.47% # Class of executed instruction
system.cpu04.op_class::SimdSha256Hash2              0      0.00%     97.47% # Class of executed instruction
system.cpu04.op_class::SimdShaSigma2                0      0.00%     97.47% # Class of executed instruction
system.cpu04.op_class::SimdShaSigma3                0      0.00%     97.47% # Class of executed instruction
system.cpu04.op_class::SimdPredAlu                  0      0.00%     97.47% # Class of executed instruction
system.cpu04.op_class::MemRead                    177      0.43%     97.90% # Class of executed instruction
system.cpu04.op_class::MemWrite                   421      1.02%     98.92% # Class of executed instruction
system.cpu04.op_class::FloatMemRead               196      0.48%     99.40% # Class of executed instruction
system.cpu04.op_class::FloatMemWrite              248      0.60%    100.00% # Class of executed instruction
system.cpu04.op_class::IprAccess                    0      0.00%    100.00% # Class of executed instruction
system.cpu04.op_class::InstPrefetch                 0      0.00%    100.00% # Class of executed instruction
system.cpu04.op_class::total                    41194                       # Class of executed instruction
system.cpu05.Branches                             463                       # Number of branches fetched
system.cpu05.committedInsts                     23187                       # Number of instructions committed
system.cpu05.committedOps                       35724                       # Number of ops (including micro ops) committed
system.cpu05.dtb.rdAccesses                       339                       # TLB accesses on read requests
system.cpu05.dtb.rdMisses                          51                       # TLB misses on read requests
system.cpu05.dtb.wrAccesses                       635                       # TLB accesses on write requests
system.cpu05.dtb.wrMisses                          19                       # TLB misses on write requests
system.cpu05.idle_fraction                   0.942660                       # Percentage of idle cycles
system.cpu05.itb.rdAccesses                         0                       # TLB accesses on read requests
system.cpu05.itb.rdMisses                           0                       # TLB misses on read requests
system.cpu05.itb.wrAccesses                     33763                       # TLB accesses on write requests
system.cpu05.itb.wrMisses                          52                       # TLB misses on write requests
system.cpu05.not_idle_fraction               0.057340                       # Percentage of non-idle cycles
system.cpu05.numCycles                        1936322                       # number of cpu cycles simulated
system.cpu05.numWorkItemsCompleted                  0                       # number of work items this cpu completed
system.cpu05.numWorkItemsStarted                    0                       # number of work items this cpu started
system.cpu05.num_busy_cycles             111028.912423                       # Number of busy cycles
system.cpu05.num_cc_register_reads               2377                       # number of times the CC registers were read
system.cpu05.num_cc_register_writes              1396                       # number of times the CC registers were written
system.cpu05.num_conditional_control_insts          407                       # number of instructions that are conditional controls
system.cpu05.num_fp_alu_accesses                32213                       # Number of float alu accesses
system.cpu05.num_fp_insts                       32213                       # number of float instructions
system.cpu05.num_fp_register_reads              71080                       # number of times the floating registers were read
system.cpu05.num_fp_register_writes             29935                       # number of times the floating registers were written
system.cpu05.num_func_calls                        33                       # number of times a function call or return occured
system.cpu05.num_idle_cycles             1825293.087577                       # Number of idle cycles
system.cpu05.num_int_alu_accesses                7726                       # Number of integer alu accesses
system.cpu05.num_int_insts                       7726                       # number of integer instructions
system.cpu05.num_int_register_reads             11367                       # number of times the integer registers were read
system.cpu05.num_int_register_writes             4654                       # number of times the integer registers were written
system.cpu05.num_load_insts                       339                       # Number of load instructions
system.cpu05.num_mem_refs                         973                       # number of memory refs
system.cpu05.num_store_insts                      634                       # Number of store instructions
system.cpu05.num_vec_alu_accesses                   0                       # Number of vector alu accesses
system.cpu05.num_vec_insts                          0                       # number of vector instructions
system.cpu05.num_vec_register_reads                 0                       # number of times the vector registers were read
system.cpu05.num_vec_register_writes                0                       # number of times the vector registers were written
system.cpu05.op_class::No_OpClass                  77      0.22%      0.22% # Class of executed instruction
system.cpu05.op_class::IntAlu                   11156     31.23%     31.44% # Class of executed instruction
system.cpu05.op_class::IntMult                      0      0.00%     31.44% # Class of executed instruction
system.cpu05.op_class::IntDiv                       0      0.00%     31.44% # Class of executed instruction
system.cpu05.op_class::FloatAdd                    10      0.03%     31.47% # Class of executed instruction
system.cpu05.op_class::FloatCmp                     0      0.00%     31.47% # Class of executed instruction
system.cpu05.op_class::FloatCvt                     0      0.00%     31.47% # Class of executed instruction
system.cpu05.op_class::FloatMult                    0      0.00%     31.47% # Class of executed instruction
system.cpu05.op_class::FloatMultAcc                 0      0.00%     31.47% # Class of executed instruction
system.cpu05.op_class::FloatDiv                     0      0.00%     31.47% # Class of executed instruction
system.cpu05.op_class::FloatMisc                    0      0.00%     31.47% # Class of executed instruction
system.cpu05.op_class::FloatSqrt                    0      0.00%     31.47% # Class of executed instruction
system.cpu05.op_class::SimdAdd                    374      1.05%     32.52% # Class of executed instruction
system.cpu05.op_class::SimdAddAcc                   0      0.00%     32.52% # Class of executed instruction
system.cpu05.op_class::SimdAlu                   4066     11.38%     43.90% # Class of executed instruction
system.cpu05.op_class::SimdCmp                      0      0.00%     43.90% # Class of executed instruction
system.cpu05.op_class::SimdCvt                     64      0.18%     44.08% # Class of executed instruction
system.cpu05.op_class::SimdMisc                  4032     11.29%     55.36% # Class of executed instruction
system.cpu05.op_class::SimdMult                     0      0.00%     55.36% # Class of executed instruction
system.cpu05.op_class::SimdMultAcc                  0      0.00%     55.36% # Class of executed instruction
system.cpu05.op_class::SimdShift                  186      0.52%     55.88% # Class of executed instruction
system.cpu05.op_class::SimdShiftAcc                 0      0.00%     55.88% # Class of executed instruction
system.cpu05.op_class::SimdDiv                      0      0.00%     55.88% # Class of executed instruction
system.cpu05.op_class::SimdSqrt                     0      0.00%     55.88% # Class of executed instruction
system.cpu05.op_class::SimdFloatAdd              3583     10.03%     65.91% # Class of executed instruction
system.cpu05.op_class::SimdFloatAlu                 0      0.00%     65.91% # Class of executed instruction
system.cpu05.op_class::SimdFloatCmp                 0      0.00%     65.91% # Class of executed instruction
system.cpu05.op_class::SimdFloatCvt              4059     11.36%     77.27% # Class of executed instruction
system.cpu05.op_class::SimdFloatDiv                 0      0.00%     77.27% # Class of executed instruction
system.cpu05.op_class::SimdFloatMisc                0      0.00%     77.27% # Class of executed instruction
system.cpu05.op_class::SimdFloatMult             7147     20.00%     97.28% # Class of executed instruction
system.cpu05.op_class::SimdFloatMultAcc             0      0.00%     97.28% # Class of executed instruction
system.cpu05.op_class::SimdFloatSqrt                0      0.00%     97.28% # Class of executed instruction
system.cpu05.op_class::SimdReduceAdd                0      0.00%     97.28% # Class of executed instruction
system.cpu05.op_class::SimdReduceAlu                0      0.00%     97.28% # Class of executed instruction
system.cpu05.op_class::SimdReduceCmp                0      0.00%     97.28% # Class of executed instruction
system.cpu05.op_class::SimdFloatReduceAdd            0      0.00%     97.28% # Class of executed instruction
system.cpu05.op_class::SimdFloatReduceCmp            0      0.00%     97.28% # Class of executed instruction
system.cpu05.op_class::SimdAes                      0      0.00%     97.28% # Class of executed instruction
system.cpu05.op_class::SimdAesMix                   0      0.00%     97.28% # Class of executed instruction
system.cpu05.op_class::SimdSha1Hash                 0      0.00%     97.28% # Class of executed instruction
system.cpu05.op_class::SimdSha1Hash2                0      0.00%     97.28% # Class of executed instruction
system.cpu05.op_class::SimdSha256Hash               0      0.00%     97.28% # Class of executed instruction
system.cpu05.op_class::SimdSha256Hash2              0      0.00%     97.28% # Class of executed instruction
system.cpu05.op_class::SimdShaSigma2                0      0.00%     97.28% # Class of executed instruction
system.cpu05.op_class::SimdShaSigma3                0      0.00%     97.28% # Class of executed instruction
system.cpu05.op_class::SimdPredAlu                  0      0.00%     97.28% # Class of executed instruction
system.cpu05.op_class::MemRead                    170      0.48%     97.75% # Class of executed instruction
system.cpu05.op_class::MemWrite                   386      1.08%     98.83% # Class of executed instruction
system.cpu05.op_class::FloatMemRead               169      0.47%     99.31% # Class of executed instruction
system.cpu05.op_class::FloatMemWrite              248      0.69%    100.00% # Class of executed instruction
system.cpu05.op_class::IprAccess                    0      0.00%    100.00% # Class of executed instruction
system.cpu05.op_class::InstPrefetch                 0      0.00%    100.00% # Class of executed instruction
system.cpu05.op_class::total                    35727                       # Class of executed instruction
system.cpu06.Branches                             444                       # Number of branches fetched
system.cpu06.committedInsts                     20350                       # Number of instructions committed
system.cpu06.committedOps                       31480                       # Number of ops (including micro ops) committed
system.cpu06.dtb.rdAccesses                       318                       # TLB accesses on read requests
system.cpu06.dtb.rdMisses                          47                       # TLB misses on read requests
system.cpu06.dtb.wrAccesses                       614                       # TLB accesses on write requests
system.cpu06.dtb.wrMisses                          17                       # TLB misses on write requests
system.cpu06.idle_fraction                   0.947227                       # Percentage of idle cycles
system.cpu06.itb.rdAccesses                         0                       # TLB accesses on read requests
system.cpu06.itb.rdMisses                           0                       # TLB misses on read requests
system.cpu06.itb.wrAccesses                     29622                       # TLB accesses on write requests
system.cpu06.itb.wrMisses                          46                       # TLB misses on write requests
system.cpu06.not_idle_fraction               0.052773                       # Percentage of non-idle cycles
system.cpu06.numCycles                        1936340                       # number of cpu cycles simulated
system.cpu06.numWorkItemsCompleted                  0                       # number of work items this cpu completed
system.cpu06.numWorkItemsStarted                    0                       # number of work items this cpu started
system.cpu06.num_busy_cycles             102185.949122                       # Number of busy cycles
system.cpu06.num_cc_register_reads               2285                       # number of times the CC registers were read
system.cpu06.num_cc_register_writes              1320                       # number of times the CC registers were written
system.cpu06.num_conditional_control_insts          388                       # number of instructions that are conditional controls
system.cpu06.num_fp_alu_accesses                28123                       # Number of float alu accesses
system.cpu06.num_fp_insts                       28123                       # number of float instructions
system.cpu06.num_fp_register_reads              62026                       # number of times the floating registers were read
system.cpu06.num_fp_register_writes             26115                       # number of times the floating registers were written
system.cpu06.num_func_calls                        33                       # number of times a function call or return occured
system.cpu06.num_idle_cycles             1834154.050878                       # Number of idle cycles
system.cpu06.num_int_alu_accesses                7033                       # Number of integer alu accesses
system.cpu06.num_int_insts                       7033                       # number of integer instructions
system.cpu06.num_int_register_reads             10535                       # number of times the integer registers were read
system.cpu06.num_int_register_writes             4269                       # number of times the integer registers were written
system.cpu06.num_load_insts                       318                       # Number of load instructions
system.cpu06.num_mem_refs                         932                       # number of memory refs
system.cpu06.num_store_insts                      614                       # Number of store instructions
system.cpu06.num_vec_alu_accesses                   0                       # Number of vector alu accesses
system.cpu06.num_vec_insts                          0                       # number of vector instructions
system.cpu06.num_vec_register_reads                 0                       # number of times the vector registers were read
system.cpu06.num_vec_register_writes                0                       # number of times the vector registers were written
system.cpu06.op_class::No_OpClass                  77      0.24%      0.24% # Class of executed instruction
system.cpu06.op_class::IntAlu                    9984     31.71%     31.96% # Class of executed instruction
system.cpu06.op_class::IntMult                      0      0.00%     31.96% # Class of executed instruction
system.cpu06.op_class::IntDiv                       0      0.00%     31.96% # Class of executed instruction
system.cpu06.op_class::FloatAdd                    10      0.03%     31.99% # Class of executed instruction
system.cpu06.op_class::FloatCmp                     0      0.00%     31.99% # Class of executed instruction
system.cpu06.op_class::FloatCvt                     0      0.00%     31.99% # Class of executed instruction
system.cpu06.op_class::FloatMult                    0      0.00%     31.99% # Class of executed instruction
system.cpu06.op_class::FloatMultAcc                 0      0.00%     31.99% # Class of executed instruction
system.cpu06.op_class::FloatDiv                     0      0.00%     31.99% # Class of executed instruction
system.cpu06.op_class::FloatMisc                    0      0.00%     31.99% # Class of executed instruction
system.cpu06.op_class::FloatSqrt                    0      0.00%     31.99% # Class of executed instruction
system.cpu06.op_class::SimdAdd                    374      1.19%     33.18% # Class of executed instruction
system.cpu06.op_class::SimdAddAcc                   0      0.00%     33.18% # Class of executed instruction
system.cpu06.op_class::SimdAlu                   3526     11.20%     44.38% # Class of executed instruction
system.cpu06.op_class::SimdCmp                      0      0.00%     44.38% # Class of executed instruction
system.cpu06.op_class::SimdCvt                     64      0.20%     44.58% # Class of executed instruction
system.cpu06.op_class::SimdMisc                  3514     11.16%     55.74% # Class of executed instruction
system.cpu06.op_class::SimdMult                     0      0.00%     55.74% # Class of executed instruction
system.cpu06.op_class::SimdMultAcc                  0      0.00%     55.74% # Class of executed instruction
system.cpu06.op_class::SimdShift                  186      0.59%     56.33% # Class of executed instruction
system.cpu06.op_class::SimdShiftAcc                 0      0.00%     56.33% # Class of executed instruction
system.cpu06.op_class::SimdDiv                      0      0.00%     56.33% # Class of executed instruction
system.cpu06.op_class::SimdSqrt                     0      0.00%     56.33% # Class of executed instruction
system.cpu06.op_class::SimdFloatAdd              3105      9.86%     66.19% # Class of executed instruction
system.cpu06.op_class::SimdFloatAlu                 0      0.00%     66.19% # Class of executed instruction
system.cpu06.op_class::SimdFloatCmp                 0      0.00%     66.19% # Class of executed instruction
system.cpu06.op_class::SimdFloatCvt              3520     11.18%     77.38% # Class of executed instruction
system.cpu06.op_class::SimdFloatDiv                 0      0.00%     77.38% # Class of executed instruction
system.cpu06.op_class::SimdFloatMisc                0      0.00%     77.38% # Class of executed instruction
system.cpu06.op_class::SimdFloatMult             6191     19.66%     97.04% # Class of executed instruction
system.cpu06.op_class::SimdFloatMultAcc             0      0.00%     97.04% # Class of executed instruction
system.cpu06.op_class::SimdFloatSqrt                0      0.00%     97.04% # Class of executed instruction
system.cpu06.op_class::SimdReduceAdd                0      0.00%     97.04% # Class of executed instruction
system.cpu06.op_class::SimdReduceAlu                0      0.00%     97.04% # Class of executed instruction
system.cpu06.op_class::SimdReduceCmp                0      0.00%     97.04% # Class of executed instruction
system.cpu06.op_class::SimdFloatReduceAdd            0      0.00%     97.04% # Class of executed instruction
system.cpu06.op_class::SimdFloatReduceCmp            0      0.00%     97.04% # Class of executed instruction
system.cpu06.op_class::SimdAes                      0      0.00%     97.04% # Class of executed instruction
system.cpu06.op_class::SimdAesMix                   0      0.00%     97.04% # Class of executed instruction
system.cpu06.op_class::SimdSha1Hash                 0      0.00%     97.04% # Class of executed instruction
system.cpu06.op_class::SimdSha1Hash2                0      0.00%     97.04% # Class of executed instruction
system.cpu06.op_class::SimdSha256Hash               0      0.00%     97.04% # Class of executed instruction
system.cpu06.op_class::SimdSha256Hash2              0      0.00%     97.04% # Class of executed instruction
system.cpu06.op_class::SimdShaSigma2                0      0.00%     97.04% # Class of executed instruction
system.cpu06.op_class::SimdShaSigma3                0      0.00%     97.04% # Class of executed instruction
system.cpu06.op_class::SimdPredAlu                  0      0.00%     97.04% # Class of executed instruction
system.cpu06.op_class::MemRead                    170      0.54%     97.58% # Class of executed instruction
system.cpu06.op_class::MemWrite                   366      1.16%     98.74% # Class of executed instruction
system.cpu06.op_class::FloatMemRead               148      0.47%     99.21% # Class of executed instruction
system.cpu06.op_class::FloatMemWrite              248      0.79%    100.00% # Class of executed instruction
system.cpu06.op_class::IprAccess                    0      0.00%    100.00% # Class of executed instruction
system.cpu06.op_class::InstPrefetch                 0      0.00%    100.00% # Class of executed instruction
system.cpu06.op_class::total                    31483                       # Class of executed instruction
system.cpu07.Branches                             417                       # Number of branches fetched
system.cpu07.committedInsts                     16603                       # Number of instructions committed
system.cpu07.committedOps                       25873                       # Number of ops (including micro ops) committed
system.cpu07.dtb.rdAccesses                       290                       # TLB accesses on read requests
system.cpu07.dtb.rdMisses                          37                       # TLB misses on read requests
system.cpu07.dtb.wrAccesses                       586                       # TLB accesses on write requests
system.cpu07.dtb.wrMisses                          16                       # TLB misses on write requests
system.cpu07.idle_fraction                   0.952761                       # Percentage of idle cycles
system.cpu07.itb.rdAccesses                         0                       # TLB accesses on read requests
system.cpu07.itb.rdMisses                           0                       # TLB misses on read requests
system.cpu07.itb.wrAccesses                     24151                       # TLB accesses on write requests
system.cpu07.itb.wrMisses                          42                       # TLB misses on write requests
system.cpu07.not_idle_fraction               0.047239                       # Percentage of non-idle cycles
system.cpu07.numCycles                        1936340                       # number of cpu cycles simulated
system.cpu07.numWorkItemsCompleted                  0                       # number of work items this cpu completed
system.cpu07.numWorkItemsStarted                    0                       # number of work items this cpu started
system.cpu07.num_busy_cycles             91470.954666                       # Number of busy cycles
system.cpu07.num_cc_register_reads               2150                       # number of times the CC registers were read
system.cpu07.num_cc_register_writes              1210                       # number of times the CC registers were written
system.cpu07.num_conditional_control_insts          361                       # number of instructions that are conditional controls
system.cpu07.num_fp_alu_accesses                22735                       # Number of float alu accesses
system.cpu07.num_fp_insts                       22735                       # number of float instructions
system.cpu07.num_fp_register_reads              50104                       # number of times the floating registers were read
system.cpu07.num_fp_register_writes             21083                       # number of times the floating registers were written
system.cpu07.num_func_calls                        33                       # number of times a function call or return occured
system.cpu07.num_idle_cycles             1844869.045334                       # Number of idle cycles
system.cpu07.num_int_alu_accesses                6102                       # Number of integer alu accesses
system.cpu07.num_int_insts                       6102                       # number of integer instructions
system.cpu07.num_int_register_reads              9409                       # number of times the integer registers were read
system.cpu07.num_int_register_writes             3749                       # number of times the integer registers were written
system.cpu07.num_load_insts                       290                       # Number of load instructions
system.cpu07.num_mem_refs                         876                       # number of memory refs
system.cpu07.num_store_insts                      586                       # Number of store instructions
system.cpu07.num_vec_alu_accesses                   0                       # Number of vector alu accesses
system.cpu07.num_vec_insts                          0                       # number of vector instructions
system.cpu07.num_vec_register_reads                 0                       # number of times the vector registers were read
system.cpu07.num_vec_register_writes                0                       # number of times the vector registers were written
system.cpu07.op_class::No_OpClass                  77      0.30%      0.30% # Class of executed instruction
system.cpu07.op_class::IntAlu                    8427     32.57%     32.86% # Class of executed instruction
system.cpu07.op_class::IntMult                      0      0.00%     32.86% # Class of executed instruction
system.cpu07.op_class::IntDiv                       0      0.00%     32.86% # Class of executed instruction
system.cpu07.op_class::FloatAdd                    10      0.04%     32.90% # Class of executed instruction
system.cpu07.op_class::FloatCmp                     0      0.00%     32.90% # Class of executed instruction
system.cpu07.op_class::FloatCvt                     0      0.00%     32.90% # Class of executed instruction
system.cpu07.op_class::FloatMult                    0      0.00%     32.90% # Class of executed instruction
system.cpu07.op_class::FloatMultAcc                 0      0.00%     32.90% # Class of executed instruction
system.cpu07.op_class::FloatDiv                     0      0.00%     32.90% # Class of executed instruction
system.cpu07.op_class::FloatMisc                    0      0.00%     32.90% # Class of executed instruction
system.cpu07.op_class::FloatSqrt                    0      0.00%     32.90% # Class of executed instruction
system.cpu07.op_class::SimdAdd                    374      1.45%     34.35% # Class of executed instruction
system.cpu07.op_class::SimdAddAcc                   0      0.00%     34.35% # Class of executed instruction
system.cpu07.op_class::SimdAlu                   2814     10.87%     45.22% # Class of executed instruction
system.cpu07.op_class::SimdCmp                      0      0.00%     45.22% # Class of executed instruction
system.cpu07.op_class::SimdCvt                     64      0.25%     45.47% # Class of executed instruction
system.cpu07.op_class::SimdMisc                  2830     10.94%     56.41% # Class of executed instruction
system.cpu07.op_class::SimdMult                     0      0.00%     56.41% # Class of executed instruction
system.cpu07.op_class::SimdMultAcc                  0      0.00%     56.41% # Class of executed instruction
system.cpu07.op_class::SimdShift                  186      0.72%     57.13% # Class of executed instruction
system.cpu07.op_class::SimdShiftAcc                 0      0.00%     57.13% # Class of executed instruction
system.cpu07.op_class::SimdDiv                      0      0.00%     57.13% # Class of executed instruction
system.cpu07.op_class::SimdSqrt                     0      0.00%     57.13% # Class of executed instruction
system.cpu07.op_class::SimdFloatAdd              2477      9.57%     66.70% # Class of executed instruction
system.cpu07.op_class::SimdFloatAlu                 0      0.00%     66.70% # Class of executed instruction
system.cpu07.op_class::SimdFloatCmp                 0      0.00%     66.70% # Class of executed instruction
system.cpu07.op_class::SimdFloatCvt              2808     10.85%     77.55% # Class of executed instruction
system.cpu07.op_class::SimdFloatDiv                 0      0.00%     77.55% # Class of executed instruction
system.cpu07.op_class::SimdFloatMisc                0      0.00%     77.55% # Class of executed instruction
system.cpu07.op_class::SimdFloatMult             4933     19.06%     96.61% # Class of executed instruction
system.cpu07.op_class::SimdFloatMultAcc             0      0.00%     96.61% # Class of executed instruction
system.cpu07.op_class::SimdFloatSqrt                0      0.00%     96.61% # Class of executed instruction
system.cpu07.op_class::SimdReduceAdd                0      0.00%     96.61% # Class of executed instruction
system.cpu07.op_class::SimdReduceAlu                0      0.00%     96.61% # Class of executed instruction
system.cpu07.op_class::SimdReduceCmp                0      0.00%     96.61% # Class of executed instruction
system.cpu07.op_class::SimdFloatReduceAdd            0      0.00%     96.61% # Class of executed instruction
system.cpu07.op_class::SimdFloatReduceCmp            0      0.00%     96.61% # Class of executed instruction
[...]
system.mem_ctrls59.wrQLenPdf::28                    0                       # What write queue length does an incoming req see
system.mem_ctrls59.wrQLenPdf::29                    0                       # What write queue length does an incoming req see
system.mem_ctrls59.wrQLenPdf::30                    0                       # What write queue length does an incoming req see
system.mem_ctrls59.wrQLenPdf::31                    0                       # What write queue length does an incoming req see
system.mem_ctrls59.wrQLenPdf::32                    0                       # What write queue length does an incoming req see
system.mem_ctrls59.wrQLenPdf::33                    0                       # What write queue length does an incoming req see
system.mem_ctrls59.wrQLenPdf::34                    0                       # What write queue length does an incoming req see
system.mem_ctrls59.wrQLenPdf::35                    0                       # What write queue length does an incoming req see
system.mem_ctrls59.wrQLenPdf::36                    0                       # What write queue length does an incoming req see
system.mem_ctrls59.wrQLenPdf::37                    0                       # What write queue length does an incoming req see
system.mem_ctrls59.wrQLenPdf::38                    0                       # What write queue length does an incoming req see
system.mem_ctrls59.wrQLenPdf::39                    0                       # What write queue length does an incoming req see
system.mem_ctrls59.wrQLenPdf::40                    0                       # What write queue length does an incoming req see
system.mem_ctrls59.wrQLenPdf::41                    0                       # What write queue length does an incoming req see
system.mem_ctrls59.wrQLenPdf::42                    0                       # What write queue length does an incoming req see
system.mem_ctrls59.wrQLenPdf::43                    0                       # What write queue length does an incoming req see
system.mem_ctrls59.wrQLenPdf::44                    0                       # What write queue length does an incoming req see
system.mem_ctrls59.wrQLenPdf::45                    0                       # What write queue length does an incoming req see
system.mem_ctrls59.wrQLenPdf::46                    0                       # What write queue length does an incoming req see
system.mem_ctrls59.wrQLenPdf::47                    0                       # What write queue length does an incoming req see
system.mem_ctrls59.wrQLenPdf::48                    0                       # What write queue length does an incoming req see
system.mem_ctrls59.wrQLenPdf::49                    0                       # What write queue length does an incoming req see
system.mem_ctrls59.wrQLenPdf::50                    0                       # What write queue length does an incoming req see
system.mem_ctrls59.wrQLenPdf::51                    0                       # What write queue length does an incoming req see
system.mem_ctrls59.wrQLenPdf::52                    0                       # What write queue length does an incoming req see
system.mem_ctrls59.wrQLenPdf::53                    0                       # What write queue length does an incoming req see
system.mem_ctrls59.wrQLenPdf::54                    0                       # What write queue length does an incoming req see
system.mem_ctrls59.wrQLenPdf::55                    0                       # What write queue length does an incoming req see
system.mem_ctrls59.wrQLenPdf::56                    0                       # What write queue length does an incoming req see
system.mem_ctrls59.wrQLenPdf::57                    0                       # What write queue length does an incoming req see
system.mem_ctrls59.wrQLenPdf::58                    0                       # What write queue length does an incoming req see
system.mem_ctrls59.wrQLenPdf::59                    0                       # What write queue length does an incoming req see
system.mem_ctrls59.wrQLenPdf::60                    0                       # What write queue length does an incoming req see
system.mem_ctrls59.wrQLenPdf::61                    0                       # What write queue length does an incoming req see
system.mem_ctrls59.wrQLenPdf::62                    0                       # What write queue length does an incoming req see
system.mem_ctrls59.wrQLenPdf::63                    0                       # What write queue length does an incoming req see
system.mem_ctrls59.bytesPerActivate::samples           89                       # Bytes accessed per row activation
system.mem_ctrls59.bytesPerActivate::mean    93.483146                       # Bytes accessed per row activation
system.mem_ctrls59.bytesPerActivate::gmean    82.369072                       # Bytes accessed per row activation
system.mem_ctrls59.bytesPerActivate::stdev    59.520453                       # Bytes accessed per row activation
system.mem_ctrls59.bytesPerActivate::64-95           65     73.03%     73.03% # Bytes accessed per row activation
system.mem_ctrls59.bytesPerActivate::128-159           15     16.85%     89.89% # Bytes accessed per row activation
system.mem_ctrls59.bytesPerActivate::192-223            3      3.37%     93.26% # Bytes accessed per row activation
system.mem_ctrls59.bytesPerActivate::256-287            4      4.49%     97.75% # Bytes accessed per row activation
system.mem_ctrls59.bytesPerActivate::320-351            2      2.25%    100.00% # Bytes accessed per row activation
system.mem_ctrls59.bytesPerActivate::total           89                       # Bytes accessed per row activation
system.mem_ctrls59.bytesReadDRAM                 8448                       # Total number of bytes read from DRAM
system.mem_ctrls59.bytesReadWrQ                   448                       # Total number of bytes read from write queue
system.mem_ctrls59.bytesWritten                     0                       # Total number of bytes written to DRAM
system.mem_ctrls59.bytesReadSys                  8896                       # Total read bytes from the system interface side
system.mem_ctrls59.bytesWrittenSys               1216                       # Total written bytes from the system interface side
system.mem_ctrls59.avgRdBW                       8.73                       # Average DRAM read bandwidth in MiByte/s
system.mem_ctrls59.avgWrBW                       0.00                       # Average achieved write bandwidth in MiByte/s
system.mem_ctrls59.avgRdBWSys                    9.19                       # Average system read bandwidth in MiByte/s
system.mem_ctrls59.avgWrBWSys                    1.26                       # Average system write bandwidth in MiByte/s
system.mem_ctrls59.peakBW                    12800.00                       # Theoretical peak bandwidth in MiByte/s
system.mem_ctrls59.busUtil                       0.07                       # Data bus utilization in percentage
system.mem_ctrls59.busUtilRead                   0.07                       # Data bus utilization in percentage for reads
system.mem_ctrls59.busUtilWrite                  0.00                       # Data bus utilization in percentage for writes
system.mem_ctrls59.totGap                   963724000                       # Total gap between requests
system.mem_ctrls59.avgGap                  6099518.99                       # Average gap between requests
system.mem_ctrls59.masterReadBytes::.ruby.dir_cntrl59         8448                       # Per-master bytes read from memory
system.mem_ctrls59.masterReadRate::.ruby.dir_cntrl59 8725735.807897472754                       # Per-master bytes read from memory rate (Bytes/sec)
system.mem_ctrls59.masterReadAccesses::.ruby.dir_cntrl59          139                       # Per-master read serviced memory accesses
system.mem_ctrls59.masterWriteAccesses::.ruby.dir_cntrl59           19                       # Per-master write serviced memory accesses
system.mem_ctrls59.masterReadTotalLat::.ruby.dir_cntrl59      4149248                       # Per-master read total memory access latency
system.mem_ctrls59.masterReadAvgLat::.ruby.dir_cntrl59     29850.71                       # Per-master read average memory access latency
system.mem_ctrls59.masterWriteAvgLat::.ruby.dir_cntrl59         0.00                       # Per-master write average memory access latency
system.mem_ctrls59.pageHitRate                  27.52                       # Row buffer hit rate, read and write combined
system.mem_ctrls59.rank1.actEnergy             571200                       # Energy for activate commands per rank (pJ)
system.mem_ctrls59.rank1.preEnergy             296010                       # Energy for precharge commands per rank (pJ)
system.mem_ctrls59.rank1.readEnergy            842520                       # Energy for read commands per rank (pJ)
system.mem_ctrls59.rank1.writeEnergy                0                       # Energy for write commands per rank (pJ)
system.mem_ctrls59.rank1.refreshEnergy   76215360.000000                       # Energy for refresh commands per rank (pJ)
system.mem_ctrls59.rank1.actBackEnergy      144374160                       # Energy for active background per rank (pJ)
system.mem_ctrls59.rank1.preBackEnergy      250199520                       # Energy for precharge background per rank (pJ)
system.mem_ctrls59.rank1.actPowerDownEnergy            0                       # Energy for active power-down per rank (pJ)
system.mem_ctrls59.rank1.prePowerDownEnergy            0                       # Energy for precharge power-down per rank (pJ)
system.mem_ctrls59.rank1.selfRefreshEnergy            0                       # Energy for self refresh per rank (pJ)
system.mem_ctrls59.rank1.totalEnergy        472498770                       # Total energy per rank (pJ)
system.mem_ctrls59.rank1.averagePower      488.032604                       # Core power per rank (mW)
system.mem_ctrls59.rank1.totalIdleTime              0                       # Total Idle time Per DRAM Rank
system.mem_ctrls59.rank1.memoryStateTime::IDLE    648885816                       # Time in different power states
system.mem_ctrls59.rank1.memoryStateTime::REF     32240000                       # Time in different power states
system.mem_ctrls59.rank1.memoryStateTime::SREF            0                       # Time in different power states
system.mem_ctrls59.rank1.memoryStateTime::PRE_PDN            0                       # Time in different power states
system.mem_ctrls59.rank1.memoryStateTime::ACT    287044684                       # Time in different power states
system.mem_ctrls59.rank1.memoryStateTime::ACT_PDN            0                       # Time in different power states
system.mem_ctrls59.rank0.actEnergy              78540                       # Energy for activate commands per rank (pJ)
system.mem_ctrls59.rank0.preEnergy              41745                       # Energy for precharge commands per rank (pJ)
system.mem_ctrls59.rank0.readEnergy             99960                       # Energy for read commands per rank (pJ)
system.mem_ctrls59.rank0.writeEnergy                0                       # Energy for write commands per rank (pJ)
system.mem_ctrls59.rank0.refreshEnergy   76215360.000000                       # Energy for refresh commands per rank (pJ)
system.mem_ctrls59.rank0.actBackEnergy       31143090                       # Energy for active background per rank (pJ)
system.mem_ctrls59.rank0.preBackEnergy      345552000                       # Energy for precharge background per rank (pJ)
system.mem_ctrls59.rank0.actPowerDownEnergy            0                       # Energy for active power-down per rank (pJ)
system.mem_ctrls59.rank0.prePowerDownEnergy            0                       # Energy for precharge power-down per rank (pJ)
system.mem_ctrls59.rank0.selfRefreshEnergy            0                       # Energy for self refresh per rank (pJ)
system.mem_ctrls59.rank0.totalEnergy        453130695                       # Total energy per rank (pJ)
system.mem_ctrls59.rank0.averagePower      468.027785                       # Core power per rank (mW)
system.mem_ctrls59.rank0.totalIdleTime              0                       # Total Idle time Per DRAM Rank
system.mem_ctrls59.rank0.memoryStateTime::IDLE    898009510                       # Time in different power states
system.mem_ctrls59.rank0.memoryStateTime::REF     32240000                       # Time in different power states
system.mem_ctrls59.rank0.memoryStateTime::SREF            0                       # Time in different power states
system.mem_ctrls59.rank0.memoryStateTime::PRE_PDN            0                       # Time in different power states
system.mem_ctrls59.rank0.memoryStateTime::ACT     37920990                       # Time in different power states
system.mem_ctrls59.rank0.memoryStateTime::ACT_PDN            0                       # Time in different power states
system.mem_ctrls59.power_state.pwrStateResidencyTicks::UNDEFINED    968170500                       # Cumulative time (in ticks) in various power states
system.cpu29.dtb.walker.power_state.pwrStateResidencyTicks::UNDEFINED    968170500                       # Cumulative time (in ticks) in various power states
system.cpu29.interrupts.clk_domain.clock         8000                       # Clock period in ticks
system.cpu29.itb.walker.power_state.pwrStateResidencyTicks::UNDEFINED    968170500                       # Cumulative time (in ticks) in various power states
system.cpu29.power_state.numTransitions             1                       # Number of power state transitions
system.cpu29.power_state.pwrStateResidencyTicks::ON    968170500                       # Cumulative time (in ticks) in various power states
system.cpu28.dtb.walker.power_state.pwrStateResidencyTicks::UNDEFINED    968170500                       # Cumulative time (in ticks) in various power states
system.cpu28.interrupts.clk_domain.clock         8000                       # Clock period in ticks
system.cpu28.itb.walker.power_state.pwrStateResidencyTicks::UNDEFINED    968170500                       # Cumulative time (in ticks) in various power states
system.cpu28.power_state.numTransitions             1                       # Number of power state transitions
system.cpu28.power_state.pwrStateResidencyTicks::ON    968170500                       # Cumulative time (in ticks) in various power states
system.cpu25.dtb.walker.power_state.pwrStateResidencyTicks::UNDEFINED    968170500                       # Cumulative time (in ticks) in various power states
system.cpu25.interrupts.clk_domain.clock         8000                       # Clock period in ticks
system.cpu25.itb.walker.power_state.pwrStateResidencyTicks::UNDEFINED    968170500                       # Cumulative time (in ticks) in various power states
system.cpu25.power_state.numTransitions             1                       # Number of power state transitions
system.cpu25.power_state.pwrStateResidencyTicks::ON    968170500                       # Cumulative time (in ticks) in various power states
system.cpu24.dtb.walker.power_state.pwrStateResidencyTicks::UNDEFINED    968170500                       # Cumulative time (in ticks) in various power states
system.cpu24.interrupts.clk_domain.clock         8000                       # Clock period in ticks
system.cpu24.itb.walker.power_state.pwrStateResidencyTicks::UNDEFINED    968170500                       # Cumulative time (in ticks) in various power states
system.cpu24.power_state.numTransitions             1                       # Number of power state transitions
system.cpu24.power_state.pwrStateResidencyTicks::ON    968170500                       # Cumulative time (in ticks) in various power states
system.cpu27.dtb.walker.power_state.pwrStateResidencyTicks::UNDEFINED    968170500                       # Cumulative time (in ticks) in various power states
system.cpu27.interrupts.clk_domain.clock         8000                       # Clock period in ticks
system.cpu27.itb.walker.power_state.pwrStateResidencyTicks::UNDEFINED    968170500                       # Cumulative time (in ticks) in various power states
system.cpu27.power_state.numTransitions             1                       # Number of power state transitions
system.cpu27.power_state.pwrStateResidencyTicks::ON    968170500                       # Cumulative time (in ticks) in various power states
system.cpu26.dtb.walker.power_state.pwrStateResidencyTicks::UNDEFINED    968170500                       # Cumulative time (in ticks) in various power states
system.cpu26.interrupts.clk_domain.clock         8000                       # Clock period in ticks
system.cpu26.itb.walker.power_state.pwrStateResidencyTicks::UNDEFINED    968170500                       # Cumulative time (in ticks) in various power states
system.cpu26.power_state.numTransitions             1                       # Number of power state transitions
system.cpu26.power_state.pwrStateResidencyTicks::ON    968170500                       # Cumulative time (in ticks) in various power states
system.cpu21.dtb.walker.power_state.pwrStateResidencyTicks::UNDEFINED    968170500                       # Cumulative time (in ticks) in various power states
system.cpu21.interrupts.clk_domain.clock         8000                       # Clock period in ticks
system.cpu21.itb.walker.power_state.pwrStateResidencyTicks::UNDEFINED    968170500                       # Cumulative time (in ticks) in various power states
system.cpu21.power_state.numTransitions             1                       # Number of power state transitions
system.cpu21.power_state.pwrStateResidencyTicks::ON    968170500                       # Cumulative time (in ticks) in various power states
system.cpu20.dtb.walker.power_state.pwrStateResidencyTicks::UNDEFINED    968170500                       # Cumulative time (in ticks) in various power states
system.cpu20.interrupts.clk_domain.clock         8000                       # Clock period in ticks
system.cpu20.itb.walker.power_state.pwrStateResidencyTicks::UNDEFINED    968170500                       # Cumulative time (in ticks) in various power states
system.cpu20.power_state.numTransitions             1                       # Number of power state transitions
system.cpu20.power_state.pwrStateResidencyTicks::ON    968170500                       # Cumulative time (in ticks) in various power states
system.cpu23.dtb.walker.power_state.pwrStateResidencyTicks::UNDEFINED    968170500                       # Cumulative time (in ticks) in various power states
system.cpu23.interrupts.clk_domain.clock         8000                       # Clock period in ticks
system.cpu23.itb.walker.power_state.pwrStateResidencyTicks::UNDEFINED    968170500                       # Cumulative time (in ticks) in various power states
system.cpu23.power_state.numTransitions             1                       # Number of power state transitions
system.cpu23.power_state.pwrStateResidencyTicks::ON    968170500                       # Cumulative time (in ticks) in various power states
system.cpu22.dtb.walker.power_state.pwrStateResidencyTicks::UNDEFINED    968170500                       # Cumulative time (in ticks) in various power states
system.cpu22.interrupts.clk_domain.clock         8000                       # Clock period in ticks
system.cpu22.itb.walker.power_state.pwrStateResidencyTicks::UNDEFINED    968170500                       # Cumulative time (in ticks) in various power states
system.cpu22.power_state.numTransitions             1                       # Number of power state transitions
system.cpu22.power_state.pwrStateResidencyTicks::ON    968170500                       # Cumulative time (in ticks) in various power states

---------- End Simulation Statistics   ----------
