
---------- Begin Simulation Statistics ----------
final_tick                               101781385483001                       # Number of ticks from beginning of simulation (restored from checkpoints and never reset)
host_inst_rate                                 867341                       # Simulator instruction rate (inst/s)
host_mem_usage                                1287028                       # Number of bytes of host memory used
host_op_rate                                  1053235                       # Simulator op (including micro ops) rate (op/s)
host_seconds                                  7667.40                       # Real time elapsed on the host
host_tick_rate                              149225681                       # Simulator tick rate (ticks/s)
sim_freq                                 1000000000000                       # Frequency of simulated ticks
sim_insts                                  6650247617                       # Number of instructions simulated
sim_ops                                    8075573002                       # Number of ops (including micro ops) simulated
sim_seconds                                  1.144173                       # Number of seconds simulated
sim_ticks                                1144172968001                       # Number of ticks simulated
system.cpu0.committedInsts                          0                       # Number of instructions committed
system.cpu0.dtb.rdAccesses                          0                       # TLB accesses on read requests
system.cpu0.dtb.rdMisses                            0                       # TLB misses on read requests
system.cpu0.dtb.wrAccesses                          0                       # TLB accesses on write requests
system.cpu0.dtb.wrMisses                            0                       # TLB misses on write requests
system.cpu0.itb.rdAccesses                          0                       # TLB accesses on read requests
system.cpu0.itb.rdMisses                            0                       # TLB misses on read requests
system.cpu0.itb.wrAccesses                          0                       # TLB accesses on write requests
system.cpu0.itb.wrMisses                            0                       # TLB misses on write requests
system.cpu0.kern.inst.arm                           0                       # number of arm instructions executed
system.cpu0.kern.inst.quiesce                       0                       # number of quiesce instructions executed
system.cpu0.numCoalescedMMIO                        0                       # number of coalesced memory mapped IO requests
system.cpu0.numCycles                               0                       # number of cpu cycles simulated
system.cpu0.numExitSignal                           0                       # exits due to signal delivery
system.cpu0.numHalt                                 0                       # number of VM exits due to wait for interrupt instructions
system.cpu0.numHypercalls                           0                       # number of hypercalls
system.cpu0.numIO                                   0                       # number of VM exits due to legacy IO
system.cpu0.numInterrupts                           0                       # number of interrupts delivered
system.cpu0.numMMIO                                 0                       # number of VM exits due to memory mapped IO
system.cpu0.numVMExits                              0                       # total number of KVM exits
system.cpu0.numVMHalfEntries                        0                       # number of KVM entries to finalize pending operations
system.cpu0.numWorkItemsCompleted                   0                       # number of work items this cpu completed
system.cpu0.numWorkItemsStarted                     0                       # number of work items this cpu started
system.cpu1.committedInsts                          0                       # Number of instructions committed
system.cpu1.dtb.rdAccesses                          0                       # TLB accesses on read requests
system.cpu1.dtb.rdMisses                            0                       # TLB misses on read requests
system.cpu1.dtb.wrAccesses                          0                       # TLB accesses on write requests
system.cpu1.dtb.wrMisses                            0                       # TLB misses on write requests
system.cpu1.itb.rdAccesses                          0                       # TLB accesses on read requests
system.cpu1.itb.rdMisses                            0                       # TLB misses on read requests
system.cpu1.itb.wrAccesses                          0                       # TLB accesses on write requests
system.cpu1.itb.wrMisses                            0                       # TLB misses on write requests
system.cpu1.kern.inst.arm                           0                       # number of arm instructions executed
system.cpu1.kern.inst.quiesce                       0                       # number of quiesce instructions executed
system.cpu1.numCoalescedMMIO                        0                       # number of coalesced memory mapped IO requests
system.cpu1.numCycles                               0                       # number of cpu cycles simulated
system.cpu1.numExitSignal                           0                       # exits due to signal delivery
system.cpu1.numHalt                                 0                       # number of VM exits due to wait for interrupt instructions
system.cpu1.numHypercalls                           0                       # number of hypercalls
system.cpu1.numIO                                   0                       # number of VM exits due to legacy IO
system.cpu1.numInterrupts                           0                       # number of interrupts delivered
system.cpu1.numMMIO                                 0                       # number of VM exits due to memory mapped IO
system.cpu1.numVMExits                              0                       # total number of KVM exits
system.cpu1.numVMHalfEntries                        0                       # number of KVM entries to finalize pending operations
system.cpu1.numWorkItemsCompleted                   0                       # number of work items this cpu completed
system.cpu1.numWorkItemsStarted                     0                       # number of work items this cpu started
system.cpu2.committedInsts                          0                       # Number of instructions committed
system.cpu2.dtb.rdAccesses                          0                       # TLB accesses on read requests
system.cpu2.dtb.rdMisses                            0                       # TLB misses on read requests
system.cpu2.dtb.wrAccesses                          0                       # TLB accesses on write requests
system.cpu2.dtb.wrMisses                            0                       # TLB misses on write requests
system.cpu2.itb.rdAccesses                          0                       # TLB accesses on read requests
system.cpu2.itb.rdMisses                            0                       # TLB misses on read requests
system.cpu2.itb.wrAccesses                          0                       # TLB accesses on write requests
system.cpu2.itb.wrMisses                            0                       # TLB misses on write requests
system.cpu2.kern.inst.arm                           0                       # number of arm instructions executed
system.cpu2.kern.inst.quiesce                       0                       # number of quiesce instructions executed
system.cpu2.numCoalescedMMIO                        0                       # number of coalesced memory mapped IO requests
system.cpu2.numCycles                               0                       # number of cpu cycles simulated
system.cpu2.numExitSignal                           0                       # exits due to signal delivery
system.cpu2.numHalt                                 0                       # number of VM exits due to wait for interrupt instructions
system.cpu2.numHypercalls                           0                       # number of hypercalls
system.cpu2.numIO                                   0                       # number of VM exits due to legacy IO
system.cpu2.numInterrupts                           0                       # number of interrupts delivered
system.cpu2.numMMIO                                 0                       # number of VM exits due to memory mapped IO
system.cpu2.numVMExits                              0                       # total number of KVM exits
system.cpu2.numVMHalfEntries                        0                       # number of KVM entries to finalize pending operations
system.cpu2.numWorkItemsCompleted                   0                       # number of work items this cpu completed
system.cpu2.numWorkItemsStarted                     0                       # number of work items this cpu started
system.cpu3.committedInsts                          0                       # Number of instructions committed
system.cpu3.dtb.rdAccesses                          0                       # TLB accesses on read requests
system.cpu3.dtb.rdMisses                            0                       # TLB misses on read requests
system.cpu3.dtb.wrAccesses                          0                       # TLB accesses on write requests
system.cpu3.dtb.wrMisses                            0                       # TLB misses on write requests
system.cpu3.itb.rdAccesses                          0                       # TLB accesses on read requests
system.cpu3.itb.rdMisses                            0                       # TLB misses on read requests
system.cpu3.itb.wrAccesses                          0                       # TLB accesses on write requests
system.cpu3.itb.wrMisses                            0                       # TLB misses on write requests
system.cpu3.kern.inst.arm                           0                       # number of arm instructions executed
system.cpu3.kern.inst.quiesce                       0                       # number of quiesce instructions executed
system.cpu3.numCoalescedMMIO                        0                       # number of coalesced memory mapped IO requests
system.cpu3.numCycles                               0                       # number of cpu cycles simulated
system.cpu3.numExitSignal                           0                       # exits due to signal delivery
system.cpu3.numHalt                                 0                       # number of VM exits due to wait for interrupt instructions
system.cpu3.numHypercalls                           0                       # number of hypercalls
system.cpu3.numIO                                   0                       # number of VM exits due to legacy IO
system.cpu3.numInterrupts                           0                       # number of interrupts delivered
system.cpu3.numMMIO                                 0                       # number of VM exits due to memory mapped IO
system.cpu3.numVMExits                              0                       # total number of KVM exits
system.cpu3.numVMHalfEntries                        0                       # number of KVM entries to finalize pending operations
system.cpu3.numWorkItemsCompleted                   0                       # number of work items this cpu completed
system.cpu3.numWorkItemsStarted                     0                       # number of work items this cpu started
system.pc.south_bridge.ide.disks.dma_read_bytes            0                       # Number of bytes transfered via DMA reads (not PRD).
system.pc.south_bridge.ide.disks.dma_read_full_pages            0                       # Number of full page size DMA reads (not PRD).
system.pc.south_bridge.ide.disks.dma_read_txs            0                       # Number of DMA read transactions (not PRD).
system.pc.south_bridge.ide.disks.dma_write_bytes       131072                       # Number of bytes transfered via DMA writes.
system.pc.south_bridge.ide.disks.dma_write_full_pages           32                       # Number of full page size DMA writes.
system.pc.south_bridge.ide.disks.dma_write_txs           32                       # Number of DMA write transactions.
system.ruby.DMA_Controller.I.allocI_load |           4    100.00%    100.00% |           0      0.00%    100.00%
system.ruby.DMA_Controller.I.allocI_load::total            4                      
system.ruby.DMA_Controller.I.allocI_store |        2048    100.00%    100.00% |           0      0.00%    100.00%
system.ruby.DMA_Controller.I.allocI_store::total         2048                      
system.ruby.DMA_Controller.I.deallocfwdfrom_in |        1156    100.00%    100.00% |           0      0.00%    100.00%
system.ruby.DMA_Controller.I.deallocfwdfrom_in::total         1156                      
system.ruby.DMA_Controller.M.allocTBE    |        1154    100.00%    100.00% |           0      0.00%    100.00%
system.ruby.DMA_Controller.M.allocTBE::total         1154                      
system.ruby.DMA_Controller.M.externalstoreMrespfrom_in |        2048    100.00%    100.00% |           0      0.00%    100.00%
system.ruby.DMA_Controller.M.externalstoreMrespfrom_in::total         2048                      
system.ruby.DMA_Controller.M_evict.Stallmandatory_in |       53521    100.00%    100.00% |           0      0.00%    100.00%
system.ruby.DMA_Controller.M_evict.Stallmandatory_in::total        53521                      
system.ruby.DMA_Controller.S.SloadSEvent |          28    100.00%    100.00% |           0      0.00%    100.00%
system.ruby.DMA_Controller.S.SloadSEvent::total           28                      
system.ruby.DMA_Controller.S.allocTBE    |           2    100.00%    100.00% |           0      0.00%    100.00%
system.ruby.DMA_Controller.S.allocTBE::total            2                      
system.ruby.DMA_Controller.S.deallocTBE  |           6    100.00%    100.00% |           0      0.00%    100.00%
system.ruby.DMA_Controller.S.deallocTBE::total            6                      
system.ruby.DMA_Controller.S.externalloadSrespfrom_in |           4    100.00%    100.00% |           0      0.00%    100.00%
system.ruby.DMA_Controller.S.externalloadSrespfrom_in::total            4                      
system.ruby.DMA_Controller.S_evict.Stallmandatory_in |         140    100.00%    100.00% |           0      0.00%    100.00%
system.ruby.DMA_Controller.S_evict.Stallmandatory_in::total          140                      
system.ruby.DMA_Controller.SloadSEvent   |          28    100.00%    100.00% |           0      0.00%    100.00%
system.ruby.DMA_Controller.SloadSEvent::total           28                      
system.ruby.DMA_Controller.Stallmandatory_in |       53661    100.00%    100.00% |           0      0.00%    100.00%
system.ruby.DMA_Controller.Stallmandatory_in::total        53661                      
system.ruby.DMA_Controller.allocI_load   |           4    100.00%    100.00% |           0      0.00%    100.00%
system.ruby.DMA_Controller.allocI_load::total            4                      
system.ruby.DMA_Controller.allocI_store  |        2048    100.00%    100.00% |           0      0.00%    100.00%
system.ruby.DMA_Controller.allocI_store::total         2048                      
system.ruby.DMA_Controller.allocTBE      |        1156    100.00%    100.00% |           0      0.00%    100.00%
system.ruby.DMA_Controller.allocTBE::total         1156                      
system.ruby.DMA_Controller.deallocTBE    |           6    100.00%    100.00% |           0      0.00%    100.00%
system.ruby.DMA_Controller.deallocTBE::total            6                      
system.ruby.DMA_Controller.deallocfwdfrom_in |        1156    100.00%    100.00% |           0      0.00%    100.00%
system.ruby.DMA_Controller.deallocfwdfrom_in::total         1156                      
system.ruby.DMA_Controller.externalloadSrespfrom_in |           4    100.00%    100.00% |           0      0.00%    100.00%
system.ruby.DMA_Controller.externalloadSrespfrom_in::total            4                      
system.ruby.DMA_Controller.externalstoreMrespfrom_in |        2048    100.00%    100.00% |           0      0.00%    100.00%
system.ruby.DMA_Controller.externalstoreMrespfrom_in::total         2048                      
system.ruby.Directory_Controller.I.deallocTBE |     2035802     25.69%     25.69% |     1941664     24.50%     50.20% |     2022154     25.52%     75.72% |     1924324     24.28%    100.00%
system.ruby.Directory_Controller.I.deallocTBE::total      7923944                      
system.ruby.Directory_Controller.I_GetML1C1_0.Progress |     1410265     24.88%     24.88% |     1428815     25.21%     50.09% |     1447309     25.54%     75.63% |     1381235     24.37%    100.00%
system.ruby.Directory_Controller.I_GetML1C1_0.Progress::total      5667624                      
system.ruby.Directory_Controller.I_GetSL1C1_0.Progress |      626385     27.72%     27.72% |      513655     22.73%     50.45% |      575677     25.48%     75.93% |      543934     24.07%    100.00%
system.ruby.Directory_Controller.I_GetSL1C1_0.Progress::total      2259651                      
system.ruby.Directory_Controller.I_GetSL1C1_0.Stallreqto_in |     1131807     51.20%     51.20% |      578703     26.18%     77.37% |      212475      9.61%     86.98% |      287734     13.02%    100.00%
system.ruby.Directory_Controller.I_GetSL1C1_0.Stallreqto_in::total      2210719                      
system.ruby.Directory_Controller.M.allocTBE |        2902     40.03%     40.03% |        1480     20.41%     60.44% |        1418     19.56%     80.00% |        1450     20.00%    100.00%
system.ruby.Directory_Controller.M.allocTBE::total         7250                      
system.ruby.Directory_Controller.M.deallocTBE |     1547175     24.95%     24.95% |     1544264     24.91%     49.86% |     1598904     25.79%     75.65% |     1509909     24.35%    100.00%
system.ruby.Directory_Controller.M.deallocTBE::total      6200252                      
system.ruby.Directory_Controller.M_GetM.Progress |          73     32.59%     32.59% |          48     21.43%     54.02% |          37     16.52%     70.54% |          66     29.46%    100.00%
system.ruby.Directory_Controller.M_GetM.Progress::total          224                      
system.ruby.Directory_Controller.M_GetS.Progress |        2829     40.26%     40.26% |        1432     20.38%     60.65% |        1381     19.66%     80.30% |        1384     19.70%    100.00%
system.ruby.Directory_Controller.M_GetS.Progress::total         7026                      
system.ruby.Directory_Controller.M_GetS.Stallreqto_in |         448    100.00%    100.00% |           0      0.00%    100.00% |           0      0.00%    100.00% |           0      0.00%    100.00%
system.ruby.Directory_Controller.M_GetS.Stallreqto_in::total          448                      
system.ruby.Directory_Controller.M_GetS_WBL1C1_0.Progress |        2829     40.26%     40.26% |        1432     20.38%     60.65% |        1381     19.66%     80.30% |        1384     19.70%    100.00%
system.ruby.Directory_Controller.M_GetS_WBL1C1_0.Progress::total         7026                      
system.ruby.Directory_Controller.M_GetS_WBL1C1_0.Stallreqto_in |        1983     54.85%     54.85% |           0      0.00%     54.85% |          64      1.77%     56.63% |        1568     43.37%    100.00%
system.ruby.Directory_Controller.M_GetS_WBL1C1_0.Stallreqto_in::total         3615                      
system.ruby.Directory_Controller.M_PutML1C1_0.Progress |     1543898     24.94%     24.94% |     1542410     24.91%     49.85% |     1597096     25.80%     75.64% |     1508073     24.36%    100.00%
system.ruby.Directory_Controller.M_PutML1C1_0.Progress::total      6191477                      
system.ruby.Directory_Controller.Progress |     4872180     25.43%     25.43% |     4650276     24.27%     49.70% |     4925816     25.71%     75.41% |     4712396     24.59%    100.00%
system.ruby.Directory_Controller.Progress::total     19160668                      
system.ruby.Directory_Controller.S.allocTBE |      136837     25.70%     25.70% |      115401     21.68%     47.38% |      151558     28.47%     75.84% |      128608     24.16%    100.00%
system.ruby.Directory_Controller.S.allocTBE::total       532404                      
system.ruby.Directory_Controller.S.deallocTBE |     2925707     25.99%     25.99% |     2609814     23.18%     49.17% |     2880248     25.59%     74.76% |     2841257     25.24%    100.00%
system.ruby.Directory_Controller.S.deallocTBE::total     11257026                      
system.ruby.Directory_Controller.S_GetM.Stallreqto_in |        4031     47.37%     47.37% |         352      4.14%     51.50% |           0      0.00%     51.50% |        4127     48.50%    100.00%
system.ruby.Directory_Controller.S_GetM.Stallreqto_in::total         8510                      
system.ruby.Directory_Controller.S_GetM.deallocTBE |        2426     55.94%     55.94% |         717     16.53%     72.47% |         468     10.79%     83.26% |         726     16.74%    100.00%
system.ruby.Directory_Controller.S_GetM.deallocTBE::total         4337                      
system.ruby.Directory_Controller.S_GetML1C1_0.Progress |        2076     65.28%     65.28% |         335     10.53%     75.82% |         447     14.06%     89.87% |         322     10.13%    100.00%
system.ruby.Directory_Controller.S_GetML1C1_0.Progress::total         3180                      
system.ruby.Directory_Controller.S_GetML1C1_0.Stallreqto_in |        1312     73.21%     73.21% |           0      0.00%     73.21% |           0      0.00%     73.21% |         480     26.79%    100.00%
system.ruby.Directory_Controller.S_GetML1C1_0.Stallreqto_in::total         1792                      
system.ruby.Directory_Controller.S_GetML1C1_1.Progress |         350     30.25%     30.25% |         382     33.02%     63.27% |          21      1.82%     65.08% |         404     34.92%    100.00%
system.ruby.Directory_Controller.S_GetML1C1_1.Progress::total         1157                      
system.ruby.Directory_Controller.S_GetML1C1_3.Progress |      134411     25.45%     25.45% |      114684     21.72%     47.17% |      151090     28.61%     75.78% |      127882     24.22%    100.00%
system.ruby.Directory_Controller.S_GetML1C1_3.Progress::total       528067                      
system.ruby.Directory_Controller.S_GetSL1C1_0.Progress |     1149064     25.56%     25.56% |     1047083     23.29%     48.85% |     1151377     25.61%     74.47% |     1147712     25.53%    100.00%
system.ruby.Directory_Controller.S_GetSL1C1_0.Progress::total      4495236                      
system.ruby.Directory_Controller.S_GetSL1C1_0.Stallreqto_in |     4176263     33.21%     33.21% |     3527623     28.05%     61.26% |     2299814     18.29%     79.55% |     2571678     20.45%    100.00%
system.ruby.Directory_Controller.S_GetSL1C1_0.Stallreqto_in::total     12575378                      
system.ruby.Directory_Controller.Stallreqto_in |     5315844     35.92%     35.92% |     4106678     27.75%     63.66% |     2512353     16.97%     80.64% |     2865587     19.36%    100.00%
system.ruby.Directory_Controller.Stallreqto_in::total     14800462                      
system.ruby.Directory_Controller.allocTBE |      139739     25.89%     25.89% |      116881     21.66%     47.55% |      152976     28.35%     75.90% |      130058     24.10%    100.00%
system.ruby.Directory_Controller.allocTBE::total       539654                      
system.ruby.Directory_Controller.deallocTBE |     6511110     25.65%     25.65% |     6096459     24.02%     49.66% |     6501774     25.61%     75.28% |     6276216     24.72%    100.00%
system.ruby.Directory_Controller.deallocTBE::total     25385559                      
system.ruby.IFETCH.hit_latency_hist_seqr::bucket_size            1                      
system.ruby.IFETCH.hit_latency_hist_seqr::max_bucket            9                      
system.ruby.IFETCH.hit_latency_hist_seqr::samples   2559550222                      
system.ruby.IFETCH.hit_latency_hist_seqr |  2559550222    100.00%    100.00% |           0      0.00%    100.00% |           0      0.00%    100.00% |           0      0.00%    100.00% |           0      0.00%    100.00% |           0      0.00%    100.00% |           0      0.00%    100.00% |           0      0.00%    100.00% |           0      0.00%    100.00% |           0      0.00%    100.00%
system.ruby.IFETCH.hit_latency_hist_seqr::total   2559550222                      
system.ruby.IFETCH.latency_hist_seqr::bucket_size            1                      
system.ruby.IFETCH.latency_hist_seqr::max_bucket            9                      
system.ruby.IFETCH.latency_hist_seqr::samples   2562306870                      
system.ruby.IFETCH.latency_hist_seqr     |  2562306870    100.00%    100.00% |           0      0.00%    100.00% |           0      0.00%    100.00% |           0      0.00%    100.00% |           0      0.00%    100.00% |           0      0.00%    100.00% |           0      0.00%    100.00% |           0      0.00%    100.00% |           0      0.00%    100.00% |           0      0.00%    100.00%
system.ruby.IFETCH.latency_hist_seqr::total   2562306870                      
system.ruby.IFETCH.miss_latency_hist_seqr::bucket_size            1                      
system.ruby.IFETCH.miss_latency_hist_seqr::max_bucket            9                      
system.ruby.IFETCH.miss_latency_hist_seqr::samples      2756648                      
system.ruby.IFETCH.miss_latency_hist_seqr |     2756648    100.00%    100.00% |           0      0.00%    100.00% |           0      0.00%    100.00% |           0      0.00%    100.00% |           0      0.00%    100.00% |           0      0.00%    100.00% |           0      0.00%    100.00% |           0      0.00%    100.00% |           0      0.00%    100.00% |           0      0.00%    100.00%
system.ruby.IFETCH.miss_latency_hist_seqr::total      2756648                      
system.ruby.L1Cache_Controller.I.allocI_load |     1643986     24.31%     24.31% |     1751694     25.91%     50.22% |     1538953     22.76%     72.98% |     1827276     27.02%    100.00%
system.ruby.L1Cache_Controller.I.allocI_load::total      6761909                      
system.ruby.L1Cache_Controller.I.allocI_store |      570940     10.07%     10.07% |     2676729     47.23%     57.31% |     1807892     31.90%     89.21% |      611393     10.79%    100.00%
system.ruby.L1Cache_Controller.I.allocI_store::total      5666954                      
system.ruby.L1Cache_Controller.I.deallocfwdfrom_in |     2213923     17.82%     17.82% |     4427407     35.63%     53.45% |     3345854     26.93%     80.38% |     2437659     19.62%    100.00%
system.ruby.L1Cache_Controller.I.deallocfwdfrom_in::total     12424843                      
system.ruby.L1Cache_Controller.I_store.Progress |        1342     91.42%     91.42% |          22      1.50%     92.92% |          54      3.68%     96.59% |          50      3.41%    100.00%
system.ruby.L1Cache_Controller.I_store.Progress::total         1468                      
system.ruby.L1Cache_Controller.I_store.Stallfwdfrom_in |           0      0.00%      0.00% |           4     12.50%     12.50% |           4     12.50%     25.00% |          24     75.00%    100.00%
system.ruby.L1Cache_Controller.I_store.Stallfwdfrom_in::total           32                      
system.ruby.L1Cache_Controller.M.MloadMEvent |    53533915     24.59%     24.59% |    54273213     24.93%     49.51% |    54991861     25.26%     74.77% |    54946306     25.23%    100.00%
system.ruby.L1Cache_Controller.M.MloadMEvent::total    217745295                      
system.ruby.L1Cache_Controller.M.MstoreMEvent |    39071540     25.61%     25.61% |    36919745     24.20%     49.81% |    37817906     24.79%     74.59% |    38767611     25.41%    100.00%
system.ruby.L1Cache_Controller.M.MstoreMEvent::total    152576802                      
system.ruby.L1Cache_Controller.M.allocTBE |      690147     11.15%     11.15% |     2818976     45.54%     56.69% |     1921638     31.04%     87.73% |      759562     12.27%    100.00%
system.ruby.L1Cache_Controller.M.allocTBE::total      6190323                      
system.ruby.L1Cache_Controller.M.externalstoreMrespfrom_in |      696381     11.24%     11.24% |     2819564     45.49%     56.73% |     1922075     31.01%     87.74% |      760184     12.26%    100.00%
system.ruby.L1Cache_Controller.M.externalstoreMrespfrom_in::total      6198204                      
system.ruby.L1Cache_Controller.M_evict.Progress |      690147     11.15%     11.15% |     2818976     45.54%     56.69% |     1921638     31.04%     87.73% |      759562     12.27%    100.00%
system.ruby.L1Cache_Controller.M_evict.Progress::total      6190323                      
system.ruby.L1Cache_Controller.M_evict.Stallmandatory_in |   111746873     11.14%     11.14% |   456912222     45.56%     56.70% |   310885459     31.00%     87.69% |   123414746     12.31%    100.00%
system.ruby.L1Cache_Controller.M_evict.Stallmandatory_in::total   1002959300                      
system.ruby.L1Cache_Controller.MloadMEvent |    53533915     24.59%     24.59% |    54273213     24.93%     49.51% |    54991861     25.26%     74.77% |    54946306     25.23%    100.00%
system.ruby.L1Cache_Controller.MloadMEvent::total    217745295                      
system.ruby.L1Cache_Controller.MstoreMEvent |    39071540     25.61%     25.61% |    36919745     24.20%     49.81% |    37817906     24.79%     74.59% |    38767611     25.41%    100.00%
system.ruby.L1Cache_Controller.MstoreMEvent::total    152576802                      
system.ruby.L1Cache_Controller.Progress  |     2344845     18.10%     18.10% |     4567401     35.25%     53.35% |     3459049     26.70%     80.05% |     2584580     19.95%    100.00%
system.ruby.L1Cache_Controller.Progress::total     12955875                      
system.ruby.L1Cache_Controller.S.SloadSEvent |   705686247     25.00%     25.00% |   707068639     25.05%     50.06% |   706663107     25.04%     75.10% |   702826258     24.90%    100.00%
system.ruby.L1Cache_Controller.S.SloadSEvent::total   2822244251                      
system.ruby.L1Cache_Controller.S.allocTBE |     1648884     24.40%     24.40% |     1748160     25.86%     50.26% |     1537109     22.74%     73.00% |     1824676     27.00%    100.00%
system.ruby.L1Cache_Controller.S.allocTBE::total      6758829                      
system.ruby.L1Cache_Controller.S.deallocTBE |        6065     86.40%     86.40% |         355      5.06%     91.45% |         232      3.30%     94.76% |         368      5.24%    100.00%
system.ruby.L1Cache_Controller.S.deallocTBE::total         7020                      
system.ruby.L1Cache_Controller.S.externalloadSrespfrom_in |     1643986     24.31%     24.31% |     1751693     25.91%     50.22% |     1538953     22.76%     72.98% |     1827276     27.02%    100.00%
system.ruby.L1Cache_Controller.S.externalloadSrespfrom_in::total      6761908                      
system.ruby.L1Cache_Controller.S_evict.Progress |     1523443     24.46%     24.46% |     1605325     25.78%     50.24% |     1422926     22.85%     73.09% |     1675885     26.91%    100.00%
system.ruby.L1Cache_Controller.S_evict.Progress::total      6227579                      
system.ruby.L1Cache_Controller.S_evict.Stallmandatory_in |   124822047     24.38%     24.38% |   132592598     25.90%     50.28% |   116428943     22.74%     73.03% |   138074733     26.97%    100.00%
system.ruby.L1Cache_Controller.S_evict.Stallmandatory_in::total    511918321                      
system.ruby.L1Cache_Controller.S_store.Progress |      129913     24.21%     24.21% |      143078     26.67%     50.88% |      114431     21.33%     72.21% |      149083     27.79%    100.00%
system.ruby.L1Cache_Controller.S_store.Progress::total       536505                      
system.ruby.L1Cache_Controller.SloadSEvent |   705686247     25.00%     25.00% |   707068639     25.05%     50.06% |   706663107     25.04%     75.10% |   702826258     24.90%    100.00%
system.ruby.L1Cache_Controller.SloadSEvent::total   2822244251                      
system.ruby.L1Cache_Controller.Stallfwdfrom_in |           0      0.00%      0.00% |           4     12.50%     12.50% |           4     12.50%     25.00% |          24     75.00%    100.00%
system.ruby.L1Cache_Controller.Stallfwdfrom_in::total           32                      
system.ruby.L1Cache_Controller.Stallmandatory_in |   236568920     15.62%     15.62% |   589504820     38.91%     54.53% |   427314402     28.21%     82.74% |   261489479     17.26%    100.00%
system.ruby.L1Cache_Controller.Stallmandatory_in::total   1514877621                      
system.ruby.L1Cache_Controller.allocI_load |     1643986     24.31%     24.31% |     1751694     25.91%     50.22% |     1538953     22.76%     72.98% |     1827276     27.02%    100.00%
system.ruby.L1Cache_Controller.allocI_load::total      6761909                      
system.ruby.L1Cache_Controller.allocI_store |      570940     10.07%     10.07% |     2676729     47.23%     57.31% |     1807892     31.90%     89.21% |      611393     10.79%    100.00%
system.ruby.L1Cache_Controller.allocI_store::total      5666954                      
system.ruby.L1Cache_Controller.allocTBE  |     2339031     18.06%     18.06% |     4567136     35.27%     53.33% |     3458747     26.71%     80.04% |     2584238     19.96%    100.00%
system.ruby.L1Cache_Controller.allocTBE::total     12949152                      
system.ruby.L1Cache_Controller.deallocTBE |        6065     86.40%     86.40% |         355      5.06%     91.45% |         232      3.30%     94.76% |         368      5.24%    100.00%
system.ruby.L1Cache_Controller.deallocTBE::total         7020                      
system.ruby.L1Cache_Controller.deallocfwdfrom_in |     2213923     17.82%     17.82% |     4427407     35.63%     53.45% |     3345854     26.93%     80.38% |     2437659     19.62%    100.00%
system.ruby.L1Cache_Controller.deallocfwdfrom_in::total     12424843                      
system.ruby.L1Cache_Controller.externalloadSrespfrom_in |     1643986     24.31%     24.31% |     1751693     25.91%     50.22% |     1538953     22.76%     72.98% |     1827276     27.02%    100.00%
system.ruby.L1Cache_Controller.externalloadSrespfrom_in::total      6761908                      
system.ruby.L1Cache_Controller.externalstoreMrespfrom_in |      696381     11.24%     11.24% |     2819564     45.49%     56.73% |     1922075     31.01%     87.74% |      760184     12.26%    100.00%
system.ruby.L1Cache_Controller.externalstoreMrespfrom_in::total      6198204                      
system.ruby.LD.hit_latency_hist_seqr::bucket_size            1                      
system.ruby.LD.hit_latency_hist_seqr::max_bucket            9                      
system.ruby.LD.hit_latency_hist_seqr::samples    480439324                      
system.ruby.LD.hit_latency_hist_seqr     |   480439324    100.00%    100.00% |           0      0.00%    100.00% |           0      0.00%    100.00% |           0      0.00%    100.00% |           0      0.00%    100.00% |           0      0.00%    100.00% |           0      0.00%    100.00% |           0      0.00%    100.00% |           0      0.00%    100.00% |           0      0.00%    100.00%
system.ruby.LD.hit_latency_hist_seqr::total    480439324                      
system.ruby.LD.latency_hist_seqr::bucket_size            1                      
system.ruby.LD.latency_hist_seqr::max_bucket            9                      
system.ruby.LD.latency_hist_seqr::samples    484444584                      
system.ruby.LD.latency_hist_seqr         |   484444584    100.00%    100.00% |           0      0.00%    100.00% |           0      0.00%    100.00% |           0      0.00%    100.00% |           0      0.00%    100.00% |           0      0.00%    100.00% |           0      0.00%    100.00% |           0      0.00%    100.00% |           0      0.00%    100.00% |           0      0.00%    100.00%
system.ruby.LD.latency_hist_seqr::total     484444584                      
system.ruby.LD.miss_latency_hist_seqr::bucket_size            1                      
system.ruby.LD.miss_latency_hist_seqr::max_bucket            9                      
system.ruby.LD.miss_latency_hist_seqr::samples      4005260                      
system.ruby.LD.miss_latency_hist_seqr    |     4005260    100.00%    100.00% |           0      0.00%    100.00% |           0      0.00%    100.00% |           0      0.00%    100.00% |           0      0.00%    100.00% |           0      0.00%    100.00% |           0      0.00%    100.00% |           0      0.00%    100.00% |           0      0.00%    100.00% |           0      0.00%    100.00%
system.ruby.LD.miss_latency_hist_seqr::total      4005260                      
system.ruby.Locked_RMW_Read.hit_latency_hist_seqr::bucket_size            1                      
system.ruby.Locked_RMW_Read.hit_latency_hist_seqr::max_bucket            9                      
system.ruby.Locked_RMW_Read.hit_latency_hist_seqr::samples       164713                      
system.ruby.Locked_RMW_Read.hit_latency_hist_seqr |      164713    100.00%    100.00% |           0      0.00%    100.00% |           0      0.00%    100.00% |           0      0.00%    100.00% |           0      0.00%    100.00% |           0      0.00%    100.00% |           0      0.00%    100.00% |           0      0.00%    100.00% |           0      0.00%    100.00% |           0      0.00%    100.00%
system.ruby.Locked_RMW_Read.hit_latency_hist_seqr::total       164713                      
system.ruby.Locked_RMW_Read.latency_hist_seqr::bucket_size            1                      
system.ruby.Locked_RMW_Read.latency_hist_seqr::max_bucket            9                      
system.ruby.Locked_RMW_Read.latency_hist_seqr::samples       187505                      
system.ruby.Locked_RMW_Read.latency_hist_seqr |      187505    100.00%    100.00% |           0      0.00%    100.00% |           0      0.00%    100.00% |           0      0.00%    100.00% |           0      0.00%    100.00% |           0      0.00%    100.00% |           0      0.00%    100.00% |           0      0.00%    100.00% |           0      0.00%    100.00% |           0      0.00%    100.00%
system.ruby.Locked_RMW_Read.latency_hist_seqr::total       187505                      
system.ruby.Locked_RMW_Read.miss_latency_hist_seqr::bucket_size            1                      
system.ruby.Locked_RMW_Read.miss_latency_hist_seqr::max_bucket            9                      
system.ruby.Locked_RMW_Read.miss_latency_hist_seqr::samples        22792                      
system.ruby.Locked_RMW_Read.miss_latency_hist_seqr |       22792    100.00%    100.00% |           0      0.00%    100.00% |           0      0.00%    100.00% |           0      0.00%    100.00% |           0      0.00%    100.00% |           0      0.00%    100.00% |           0      0.00%    100.00% |           0      0.00%    100.00% |           0      0.00%    100.00% |           0      0.00%    100.00%
system.ruby.Locked_RMW_Read.miss_latency_hist_seqr::total        22792                      
system.ruby.Locked_RMW_Write.hit_latency_hist_seqr::bucket_size            1                      
system.ruby.Locked_RMW_Write.hit_latency_hist_seqr::max_bucket            9                      
system.ruby.Locked_RMW_Write.hit_latency_hist_seqr::samples       187505                      
system.ruby.Locked_RMW_Write.hit_latency_hist_seqr |      187505    100.00%    100.00% |           0      0.00%    100.00% |           0      0.00%    100.00% |           0      0.00%    100.00% |           0      0.00%    100.00% |           0      0.00%    100.00% |           0      0.00%    100.00% |           0      0.00%    100.00% |           0      0.00%    100.00% |           0      0.00%    100.00%
system.ruby.Locked_RMW_Write.hit_latency_hist_seqr::total       187505                      
system.ruby.Locked_RMW_Write.latency_hist_seqr::bucket_size            1                      
system.ruby.Locked_RMW_Write.latency_hist_seqr::max_bucket            9                      
system.ruby.Locked_RMW_Write.latency_hist_seqr::samples       187505                      
system.ruby.Locked_RMW_Write.latency_hist_seqr |      187505    100.00%    100.00% |           0      0.00%    100.00% |           0      0.00%    100.00% |           0      0.00%    100.00% |           0      0.00%    100.00% |           0      0.00%    100.00% |           0      0.00%    100.00% |           0      0.00%    100.00% |           0      0.00%    100.00% |           0      0.00%    100.00%
system.ruby.Locked_RMW_Write.latency_hist_seqr::total       187505                      
system.ruby.RMW_Read.hit_latency_hist_seqr::bucket_size            1                      
system.ruby.RMW_Read.hit_latency_hist_seqr::max_bucket            9                      
system.ruby.RMW_Read.hit_latency_hist_seqr::samples      7239306                      
system.ruby.RMW_Read.hit_latency_hist_seqr |     7239306    100.00%    100.00% |           0      0.00%    100.00% |           0      0.00%    100.00% |           0      0.00%    100.00% |           0      0.00%    100.00% |           0      0.00%    100.00% |           0      0.00%    100.00% |           0      0.00%    100.00% |           0      0.00%    100.00% |           0      0.00%    100.00%
system.ruby.RMW_Read.hit_latency_hist_seqr::total      7239306                      
system.ruby.RMW_Read.latency_hist_seqr::bucket_size            1                      
system.ruby.RMW_Read.latency_hist_seqr::max_bucket            9                      
system.ruby.RMW_Read.latency_hist_seqr::samples      7288985                      
system.ruby.RMW_Read.latency_hist_seqr   |     7288985    100.00%    100.00% |           0      0.00%    100.00% |           0      0.00%    100.00% |           0      0.00%    100.00% |           0      0.00%    100.00% |           0      0.00%    100.00% |           0      0.00%    100.00% |           0      0.00%    100.00% |           0      0.00%    100.00% |           0      0.00%    100.00%
system.ruby.RMW_Read.latency_hist_seqr::total      7288985                      
system.ruby.RMW_Read.miss_latency_hist_seqr::bucket_size            1                      
system.ruby.RMW_Read.miss_latency_hist_seqr::max_bucket            9                      
system.ruby.RMW_Read.miss_latency_hist_seqr::samples        49679                      
system.ruby.RMW_Read.miss_latency_hist_seqr |       49679    100.00%    100.00% |           0      0.00%    100.00% |           0      0.00%    100.00% |           0      0.00%    100.00% |           0      0.00%    100.00% |           0      0.00%    100.00% |           0      0.00%    100.00% |           0      0.00%    100.00% |           0      0.00%    100.00% |           0      0.00%    100.00%
system.ruby.RMW_Read.miss_latency_hist_seqr::total        49679                      
system.ruby.ST.hit_latency_hist_seqr::bucket_size            1                      
system.ruby.ST.hit_latency_hist_seqr::max_bucket            9                      
system.ruby.ST.hit_latency_hist_seqr::samples    144985278                      
system.ruby.ST.hit_latency_hist_seqr     |   144985278    100.00%    100.00% |           0      0.00%    100.00% |           0      0.00%    100.00% |           0      0.00%    100.00% |           0      0.00%    100.00% |           0      0.00%    100.00% |           0      0.00%    100.00% |           0      0.00%    100.00% |           0      0.00%    100.00% |           0      0.00%    100.00%
system.ruby.ST.hit_latency_hist_seqr::total    144985278                      
system.ruby.ST.latency_hist_seqr::bucket_size            1                      
system.ruby.ST.latency_hist_seqr::max_bucket            9                      
system.ruby.ST.latency_hist_seqr::samples    151111011                      
system.ruby.ST.latency_hist_seqr         |   151111011    100.00%    100.00% |           0      0.00%    100.00% |           0      0.00%    100.00% |           0      0.00%    100.00% |           0      0.00%    100.00% |           0      0.00%    100.00% |           0      0.00%    100.00% |           0      0.00%    100.00% |           0      0.00%    100.00% |           0      0.00%    100.00%
system.ruby.ST.latency_hist_seqr::total     151111011                      
system.ruby.ST.miss_latency_hist_seqr::bucket_size            1                      
system.ruby.ST.miss_latency_hist_seqr::max_bucket            9                      
system.ruby.ST.miss_latency_hist_seqr::samples      6125733                      
system.ruby.ST.miss_latency_hist_seqr    |     6125733    100.00%    100.00% |           0      0.00%    100.00% |           0      0.00%    100.00% |           0      0.00%    100.00% |           0      0.00%    100.00% |           0      0.00%    100.00% |           0      0.00%    100.00% |           0      0.00%    100.00% |           0      0.00%    100.00% |           0      0.00%    100.00%
system.ruby.ST.miss_latency_hist_seqr::total      6125733                      
system.ruby.dir_cntrl0.fully_busy_cycles       166126                       # cycles for which number of transistions == max transitions
system.ruby.dir_cntrl0.fwdFrom.avg_buf_msgs     0.008360                       # Average number of messages in buffer
system.ruby.dir_cntrl0.fwdFrom.avg_stall_time  2999.979955                       # Average number of cycles messages are stalled in this MB
system.ruby.dir_cntrl0.reqTo.avg_buf_msgs     0.002922                       # Average number of messages in buffer
system.ruby.dir_cntrl0.reqTo.avg_stall_time  5936.424310                       # Average number of cycles messages are stalled in this MB
system.ruby.dir_cntrl0.requestToMemory.avg_buf_msgs     0.002128                       # Average number of messages in buffer
system.ruby.dir_cntrl0.requestToMemory.avg_stall_time   500.004429                       # Average number of cycles messages are stalled in this MB
system.ruby.dir_cntrl0.respFrom.avg_buf_msgs     0.008714                       # Average number of messages in buffer
system.ruby.dir_cntrl0.respFrom.avg_stall_time  3000.169958                       # Average number of cycles messages are stalled in this MB
system.ruby.dir_cntrl0.respTo.avg_buf_msgs     0.000002                       # Average number of messages in buffer
system.ruby.dir_cntrl0.respTo.avg_stall_time 12904.639731                       # Average number of cycles messages are stalled in this MB
system.ruby.dir_cntrl0.responseFromMemory.avg_buf_msgs     0.003836                       # Average number of messages in buffer
system.ruby.dir_cntrl0.responseFromMemory.avg_stall_time   499.999971                       # Average number of cycles messages are stalled in this MB
system.ruby.dir_cntrl1.fully_busy_cycles       128337                       # cycles for which number of transistions == max transitions
system.ruby.dir_cntrl1.fwdFrom.avg_buf_msgs     0.007844                       # Average number of messages in buffer
system.ruby.dir_cntrl1.fwdFrom.avg_stall_time  2999.962256                       # Average number of cycles messages are stalled in this MB
system.ruby.dir_cntrl1.reqTo.avg_buf_msgs     0.002724                       # Average number of messages in buffer
system.ruby.dir_cntrl1.reqTo.avg_stall_time  5834.260039                       # Average number of cycles messages are stalled in this MB
system.ruby.dir_cntrl1.requestToMemory.avg_buf_msgs     0.002032                       # Average number of messages in buffer
system.ruby.dir_cntrl1.requestToMemory.avg_stall_time   500.005135                       # Average number of cycles messages are stalled in this MB
system.ruby.dir_cntrl1.respFrom.avg_buf_msgs     0.008144                       # Average number of messages in buffer
system.ruby.dir_cntrl1.respFrom.avg_stall_time  3000.303464                       # Average number of cycles messages are stalled in this MB
system.ruby.dir_cntrl1.respTo.avg_buf_msgs     0.000001                       # Average number of messages in buffer
system.ruby.dir_cntrl1.respTo.avg_stall_time 14028.940531                       # Average number of cycles messages are stalled in this MB
system.ruby.dir_cntrl1.responseFromMemory.avg_buf_msgs     0.003694                       # Average number of messages in buffer
system.ruby.dir_cntrl1.responseFromMemory.avg_stall_time   499.999971                       # Average number of cycles messages are stalled in this MB
system.ruby.dir_cntrl2.fully_busy_cycles        78514                       # cycles for which number of transistions == max transitions
system.ruby.dir_cntrl2.fwdFrom.avg_buf_msgs     0.008327                       # Average number of messages in buffer
system.ruby.dir_cntrl2.fwdFrom.avg_stall_time  2999.948765                       # Average number of cycles messages are stalled in this MB
system.ruby.dir_cntrl2.reqTo.avg_buf_msgs     0.002878                       # Average number of messages in buffer
system.ruby.dir_cntrl2.reqTo.avg_stall_time  6055.923356                       # Average number of cycles messages are stalled in this MB
system.ruby.dir_cntrl2.requestToMemory.avg_buf_msgs     0.002152                       # Average number of messages in buffer
system.ruby.dir_cntrl2.requestToMemory.avg_stall_time   500.003402                       # Average number of cycles messages are stalled in this MB
system.ruby.dir_cntrl2.respFrom.avg_buf_msgs     0.008729                       # Average number of messages in buffer
system.ruby.dir_cntrl2.respFrom.avg_stall_time  3000.419122                       # Average number of cycles messages are stalled in this MB
system.ruby.dir_cntrl2.respTo.avg_buf_msgs     0.000001                       # Average number of messages in buffer
system.ruby.dir_cntrl2.respTo.avg_stall_time 14342.558333                       # Average number of cycles messages are stalled in this MB
system.ruby.dir_cntrl2.responseFromMemory.avg_buf_msgs     0.003896                       # Average number of messages in buffer
system.ruby.dir_cntrl2.responseFromMemory.avg_stall_time   499.999872                       # Average number of cycles messages are stalled in this MB
system.ruby.dir_cntrl3.fully_busy_cycles        89552                       # cycles for which number of transistions == max transitions
system.ruby.dir_cntrl3.fwdFrom.avg_buf_msgs     0.008062                       # Average number of messages in buffer
system.ruby.dir_cntrl3.fwdFrom.avg_stall_time  2999.971726                       # Average number of cycles messages are stalled in this MB
system.ruby.dir_cntrl3.reqTo.avg_buf_msgs     0.002784                       # Average number of messages in buffer
system.ruby.dir_cntrl3.reqTo.avg_stall_time  5917.517215                       # Average number of cycles messages are stalled in this MB
system.ruby.dir_cntrl3.requestToMemory.avg_buf_msgs     0.002059                       # Average number of messages in buffer
system.ruby.dir_cntrl3.requestToMemory.avg_stall_time   500.002770                       # Average number of cycles messages are stalled in this MB
system.ruby.dir_cntrl3.respFrom.avg_buf_msgs     0.008402                       # Average number of messages in buffer
system.ruby.dir_cntrl3.respFrom.avg_stall_time  3000.617764                       # Average number of cycles messages are stalled in this MB
system.ruby.dir_cntrl3.respTo.avg_buf_msgs     0.000001                       # Average number of messages in buffer
system.ruby.dir_cntrl3.respTo.avg_stall_time 15129.724215                       # Average number of cycles messages are stalled in this MB
system.ruby.dir_cntrl3.responseFromMemory.avg_buf_msgs     0.003724                       # Average number of messages in buffer
system.ruby.dir_cntrl3.responseFromMemory.avg_stall_time   499.999938                       # Average number of cycles messages are stalled in this MB
system.ruby.dma_cntrl0.cache.demand_accesses            0                       # Number of cache demand accesses
system.ruby.dma_cntrl0.cache.demand_hits            0                       # Number of cache demand hits
system.ruby.dma_cntrl0.cache.demand_misses            0                       # Number of cache demand misses
system.ruby.dma_cntrl0.fully_busy_cycles        13693                       # cycles for which number of transistions == max transitions
system.ruby.dma_cntrl0.fwdFrom.avg_buf_msgs     0.000001                       # Average number of messages in buffer
system.ruby.dma_cntrl0.fwdFrom.avg_stall_time  6305.790289                       # Average number of cycles messages are stalled in this MB
system.ruby.dma_cntrl0.mandatoryQueue.avg_buf_msgs     0.000658                       # Average number of messages in buffer
system.ruby.dma_cntrl0.mandatoryQueue.avg_stall_time 1242192.174656                       # Average number of cycles messages are stalled in this MB
system.ruby.dma_cntrl0.reqTo.avg_buf_msgs     0.000002                       # Average number of messages in buffer
system.ruby.dma_cntrl0.reqTo.avg_stall_time   485.073462                       # Average number of cycles messages are stalled in this MB
system.ruby.dma_cntrl0.respFrom.avg_buf_msgs     0.000001                       # Average number of messages in buffer
system.ruby.dma_cntrl0.respFrom.avg_stall_time 16008.416772                       # Average number of cycles messages are stalled in this MB
system.ruby.dma_cntrl0.respTo.avg_buf_msgs     0.000000                       # Average number of messages in buffer
system.ruby.dma_cntrl0.respTo.avg_stall_time   969.996444                       # Average number of cycles messages are stalled in this MB
system.ruby.hit_latency_hist_seqr::bucket_size            1                      
system.ruby.hit_latency_hist_seqr::max_bucket            9                      
system.ruby.hit_latency_hist_seqr::samples   3192566348                      
system.ruby.hit_latency_hist_seqr        |  3192566348    100.00%    100.00% |           0      0.00%    100.00% |           0      0.00%    100.00% |           0      0.00%    100.00% |           0      0.00%    100.00% |           0      0.00%    100.00% |           0      0.00%    100.00% |           0      0.00%    100.00% |           0      0.00%    100.00% |           0      0.00%    100.00%
system.ruby.hit_latency_hist_seqr::total   3192566348                      
system.ruby.io_controller.cache.demand_accesses            0                       # Number of cache demand accesses
system.ruby.io_controller.cache.demand_hits            0                       # Number of cache demand hits
system.ruby.io_controller.cache.demand_misses            0                       # Number of cache demand misses
system.ruby.l1_cntrl0.cache.demand_accesses            0                       # Number of cache demand accesses
system.ruby.l1_cntrl0.cache.demand_hits             0                       # Number of cache demand hits
system.ruby.l1_cntrl0.cache.demand_misses            0                       # Number of cache demand misses
system.ruby.l1_cntrl0.fully_busy_cycles      60249206                       # cycles for which number of transistions == max transitions
system.ruby.l1_cntrl0.fwdFrom.avg_buf_msgs     0.000970                       # Average number of messages in buffer
system.ruby.l1_cntrl0.fwdFrom.avg_stall_time  6555.809126                       # Average number of cycles messages are stalled in this MB
system.ruby.l1_cntrl0.mandatoryQueue.avg_buf_msgs     0.376321                       # Average number of messages in buffer
system.ruby.l1_cntrl0.mandatoryQueue.avg_stall_time  2404.405558                       # Average number of cycles messages are stalled in this MB
system.ruby.l1_cntrl0.reqTo.avg_buf_msgs     0.001990                       # Average number of messages in buffer
system.ruby.l1_cntrl0.reqTo.avg_stall_time   499.949966                       # Average number of cycles messages are stalled in this MB
system.ruby.l1_cntrl0.respFrom.avg_buf_msgs     0.001025                       # Average number of messages in buffer
system.ruby.l1_cntrl0.respFrom.avg_stall_time 16459.842967                       # Average number of cycles messages are stalled in this MB
system.ruby.l1_cntrl0.respTo.avg_buf_msgs     0.000010                       # Average number of messages in buffer
system.ruby.l1_cntrl0.respTo.avg_stall_time   965.710832                       # Average number of cycles messages are stalled in this MB
system.ruby.l1_cntrl1.cache.demand_accesses            0                       # Number of cache demand accesses
system.ruby.l1_cntrl1.cache.demand_hits             0                       # Number of cache demand hits
system.ruby.l1_cntrl1.cache.demand_misses            0                       # Number of cache demand misses
system.ruby.l1_cntrl1.fully_busy_cycles     149588408                       # cycles for which number of transistions == max transitions
system.ruby.l1_cntrl1.fwdFrom.avg_buf_msgs     0.001935                       # Average number of messages in buffer
system.ruby.l1_cntrl1.fwdFrom.avg_stall_time  6518.161478                       # Average number of cycles messages are stalled in this MB
system.ruby.l1_cntrl1.mandatoryQueue.avg_buf_msgs     0.416337                       # Average number of messages in buffer
system.ruby.l1_cntrl1.mandatoryQueue.avg_stall_time  4206.936527                       # Average number of cycles messages are stalled in this MB
system.ruby.l1_cntrl1.reqTo.avg_buf_msgs     0.003931                       # Average number of messages in buffer
system.ruby.l1_cntrl1.reqTo.avg_stall_time   499.999999                       # Average number of cycles messages are stalled in this MB
system.ruby.l1_cntrl1.respFrom.avg_buf_msgs     0.001998                       # Average number of messages in buffer
system.ruby.l1_cntrl1.respFrom.avg_stall_time 16525.258668                       # Average number of cycles messages are stalled in this MB
system.ruby.l1_cntrl1.respTo.avg_buf_msgs     0.000002                       # Average number of messages in buffer
system.ruby.l1_cntrl1.respTo.avg_stall_time   515.860940                       # Average number of cycles messages are stalled in this MB
system.ruby.l1_cntrl2.cache.demand_accesses            0                       # Number of cache demand accesses
system.ruby.l1_cntrl2.cache.demand_hits             0                       # Number of cache demand hits
system.ruby.l1_cntrl2.cache.demand_misses            0                       # Number of cache demand misses
system.ruby.l1_cntrl2.fully_busy_cycles     108500895                       # cycles for which number of transistions == max transitions
system.ruby.l1_cntrl2.fwdFrom.avg_buf_msgs     0.001462                       # Average number of messages in buffer
system.ruby.l1_cntrl2.fwdFrom.avg_stall_time  6486.366716                       # Average number of cycles messages are stalled in this MB
system.ruby.l1_cntrl2.mandatoryQueue.avg_buf_msgs     0.398417                       # Average number of messages in buffer
system.ruby.l1_cntrl2.mandatoryQueue.avg_stall_time  3450.894658                       # Average number of cycles messages are stalled in this MB
system.ruby.l1_cntrl2.reqTo.avg_buf_msgs     0.002974                       # Average number of messages in buffer
system.ruby.l1_cntrl2.reqTo.avg_stall_time   499.942691                       # Average number of cycles messages are stalled in this MB
system.ruby.l1_cntrl2.respFrom.avg_buf_msgs     0.001513                       # Average number of messages in buffer
system.ruby.l1_cntrl2.respFrom.avg_stall_time 16410.864461                       # Average number of cycles messages are stalled in this MB
system.ruby.l1_cntrl2.respTo.avg_buf_msgs     0.000001                       # Average number of messages in buffer
system.ruby.l1_cntrl2.respTo.avg_stall_time   512.423178                       # Average number of cycles messages are stalled in this MB
system.ruby.l1_cntrl3.cache.demand_accesses            0                       # Number of cache demand accesses
system.ruby.l1_cntrl3.cache.demand_hits             0                       # Number of cache demand hits
system.ruby.l1_cntrl3.cache.demand_misses            0                       # Number of cache demand misses
system.ruby.l1_cntrl3.fully_busy_cycles      66590115                       # cycles for which number of transistions == max transitions
system.ruby.l1_cntrl3.fwdFrom.avg_buf_msgs     0.001065                       # Average number of messages in buffer
system.ruby.l1_cntrl3.fwdFrom.avg_stall_time  6566.166852                       # Average number of cycles messages are stalled in this MB
system.ruby.l1_cntrl3.mandatoryQueue.avg_buf_msgs     0.378430                       # Average number of messages in buffer
system.ruby.l1_cntrl3.mandatoryQueue.avg_stall_time  2637.280297                       # Average number of cycles messages are stalled in this MB
system.ruby.l1_cntrl3.reqTo.avg_buf_msgs     0.002195                       # Average number of messages in buffer
system.ruby.l1_cntrl3.reqTo.avg_stall_time   499.999999                       # Average number of cycles messages are stalled in this MB
system.ruby.l1_cntrl3.respFrom.avg_buf_msgs     0.001131                       # Average number of messages in buffer
system.ruby.l1_cntrl3.respFrom.avg_stall_time 16543.297261                       # Average number of cycles messages are stalled in this MB
system.ruby.l1_cntrl3.respTo.avg_buf_msgs     0.000002                       # Average number of messages in buffer
system.ruby.l1_cntrl3.respTo.avg_stall_time   505.448117                       # Average number of cycles messages are stalled in this MB
system.ruby.latency_hist_seqr::bucket_size            1                      
system.ruby.latency_hist_seqr::max_bucket            9                      
system.ruby.latency_hist_seqr::samples     3205526460                      
system.ruby.latency_hist_seqr            |  3205526460    100.00%    100.00% |           0      0.00%    100.00% |           0      0.00%    100.00% |           0      0.00%    100.00% |           0      0.00%    100.00% |           0      0.00%    100.00% |           0      0.00%    100.00% |           0      0.00%    100.00% |           0      0.00%    100.00% |           0      0.00%    100.00%
system.ruby.latency_hist_seqr::total       3205526460                      
system.ruby.miss_latency_hist_seqr::bucket_size            1                      
system.ruby.miss_latency_hist_seqr::max_bucket            9                      
system.ruby.miss_latency_hist_seqr::samples     12960112                      
system.ruby.miss_latency_hist_seqr       |    12960112    100.00%    100.00% |           0      0.00%    100.00% |           0      0.00%    100.00% |           0      0.00%    100.00% |           0      0.00%    100.00% |           0      0.00%    100.00% |           0      0.00%    100.00% |           0      0.00%    100.00% |           0      0.00%    100.00% |           0      0.00%    100.00%
system.ruby.miss_latency_hist_seqr::total     12960112                      
system.ruby.network.average_flit_latency    16.560762                      
system.ruby.network.average_flit_network_latency    12.529246                      
system.ruby.network.average_flit_queueing_latency     4.031516                      
system.ruby.network.average_flit_vnet_latency |   15.018031                       |    5.002319                       |   11.176563                      
system.ruby.network.average_flit_vqueue_latency |    5.998008                       |    6.000014                       |    1.000123                      
system.ruby.network.average_hops             0.999940                      
system.ruby.network.average_packet_latency    16.056581                      
system.ruby.network.average_packet_network_latency    12.556350                      
system.ruby.network.average_packet_queueing_latency     3.500231                      
system.ruby.network.average_packet_vnet_latency |   25.016708                       |    5.002319                       |    9.884224                      
system.ruby.network.average_packet_vqueue_latency |    5.994547                       |    6.000014                       |    1.000065                      
system.ruby.network.avg_link_utilization     0.167066                      
system.ruby.network.avg_vc_load          |    0.063627     38.08%     38.08% |    0.007245      4.34%     42.42% |    0.007087      4.24%     46.66% |    0.007087      4.24%     50.91% |    0.012221      7.32%     58.22% |    0.001363      0.82%     59.04% |    0.001358      0.81%     59.85% |    0.001358      0.81%     60.66% |    0.048780     29.20%     89.86% |    0.005978      3.58%     93.44% |    0.005465      3.27%     96.71% |    0.005496      3.29%    100.00%
system.ruby.network.avg_vc_load::total       0.167066                      
system.ruby.network.ext_in_link_utilization    127437390                      
system.ruby.network.ext_out_link_utilization    127437390                      
system.ruby.network.flit_network_latency |   974027910                       |    62193970                       |   560472592                      
system.ruby.network.flit_queueing_latency |   389014195                       |    74598342                       |    50153303                      
system.ruby.network.flits_injected       |    64857231     50.89%     50.89% |    12433028      9.76%     60.65% |    50147131     39.35%    100.00%
system.ruby.network.flits_injected::total    127437390                      
system.ruby.network.flits_received       |    64857231     50.89%     50.89% |    12433028      9.76%     60.65% |    50147131     39.35%    100.00%
system.ruby.network.flits_received::total    127437390                      
system.ruby.network.int_link_utilization    127429783                      
system.ruby.network.packet_network_latency |   324728654                       |    62193970                       |   250873701                      
system.ruby.network.packet_queueing_latency |    77812043                       |    74598342                       |    25382863                      
system.ruby.network.packets_injected     |    12980471     25.55%     25.55% |    12433028     24.48%     50.03% |    25381223     49.97%    100.00%
system.ruby.network.packets_injected::total     50794722                      
system.ruby.network.packets_received     |    12980471     25.55%     25.55% |    12433028     24.48%     50.03% |    25381223     49.97%    100.00%
system.ruby.network.packets_received::total     50794722                      
system.ruby.network.routers0.buffer_reads     58430857                      
system.ruby.network.routers0.buffer_writes     58430857                      
system.ruby.network.routers0.crossbar_activity     58430857                      
system.ruby.network.routers0.sw_input_arbiter_activity     58497654                      
system.ruby.network.routers0.sw_output_arbiter_activity     58430857                      
system.ruby.network.routers1.buffer_reads     72603238                      
system.ruby.network.routers1.buffer_writes     72603238                      
system.ruby.network.routers1.crossbar_activity     72603238                      
system.ruby.network.routers1.sw_input_arbiter_activity     72674088                      
system.ruby.network.routers1.sw_output_arbiter_activity     72603238                      
system.ruby.network.routers2.buffer_reads     64213196                      
system.ruby.network.routers2.buffer_writes     64213196                      
system.ruby.network.routers2.crossbar_activity     64213196                      
system.ruby.network.routers2.sw_input_arbiter_activity     64282675                      
system.ruby.network.routers2.sw_output_arbiter_activity     64213196                      
system.ruby.network.routers3.buffer_reads     59619882                      
system.ruby.network.routers3.buffer_writes     59619882                      
system.ruby.network.routers3.crossbar_activity     59619882                      
system.ruby.network.routers3.sw_input_arbiter_activity     59683106                      
system.ruby.network.routers3.sw_output_arbiter_activity     59619882                      
system.ruby.outstanding_req_hist_seqr::bucket_size            1                      
system.ruby.outstanding_req_hist_seqr::max_bucket            9                      
system.ruby.outstanding_req_hist_seqr::samples   3205526461                      
system.ruby.outstanding_req_hist_seqr::mean     1.000000                      
system.ruby.outstanding_req_hist_seqr::gmean     1.000000                      
system.ruby.outstanding_req_hist_seqr::stdev     0.000079                      
system.ruby.outstanding_req_hist_seqr    |           0      0.00%      0.00% |  3205526441    100.00%    100.00% |          20      0.00%    100.00% |           0      0.00%    100.00% |           0      0.00%    100.00% |           0      0.00%    100.00% |           0      0.00%    100.00% |           0      0.00%    100.00% |           0      0.00%    100.00% |           0      0.00%    100.00%
system.ruby.outstanding_req_hist_seqr::total   3205526461                      
system.switch_cpus0.Branches                 59976523                       # Number of branches fetched
system.switch_cpus0.committedInsts          438917853                       # Number of instructions committed
system.switch_cpus0.committedOps            795614845                       # Number of ops (including micro ops) committed
system.switch_cpus0.dtb.rdAccesses          122767126                       # TLB accesses on read requests
system.switch_cpus0.dtb.rdMisses                43230                       # TLB misses on read requests
system.switch_cpus0.dtb.wrAccesses           37897004                       # TLB accesses on write requests
system.switch_cpus0.dtb.wrMisses                 8150                       # TLB misses on write requests
system.switch_cpus0.idle_fraction            0.129391                       # Percentage of idle cycles
system.switch_cpus0.itb.rdAccesses                  0                       # TLB accesses on read requests
system.switch_cpus0.itb.rdMisses                    0                       # TLB misses on read requests
system.switch_cpus0.itb.wrAccesses          639765416                       # TLB accesses on write requests
system.switch_cpus0.itb.wrMisses                18269                       # TLB misses on write requests
system.switch_cpus0.kern.inst.arm                   0                       # number of arm instructions executed
system.switch_cpus0.kern.inst.quiesce               0                       # number of quiesce instructions executed
system.switch_cpus0.not_idle_fraction        0.870609                       # Percentage of non-idle cycles
system.switch_cpus0.numCycles              2287635119                       # number of cpu cycles simulated
system.switch_cpus0.numWorkItemsCompleted            0                       # number of work items this cpu completed
system.switch_cpus0.numWorkItemsStarted             0                       # number of work items this cpu started
system.switch_cpus0.num_busy_cycles      1991635584.362141                       # Number of busy cycles
system.switch_cpus0.num_cc_register_reads    288664864                       # number of times the CC registers were read
system.switch_cpus0.num_cc_register_writes    228328660                       # number of times the CC registers were written
system.switch_cpus0.num_conditional_control_insts     45485400                       # number of instructions that are conditional controls
system.switch_cpus0.num_fp_alu_accesses     273210286                       # Number of float alu accesses
system.switch_cpus0.num_fp_insts            273210286                       # number of float instructions
system.switch_cpus0.num_fp_register_reads    411923947                       # number of times the floating registers were read
system.switch_cpus0.num_fp_register_writes    247859314                       # number of times the floating registers were written
system.switch_cpus0.num_func_calls            9039416                       # number of times a function call or return occured
system.switch_cpus0.num_idle_cycles      295999534.637859                       # Number of idle cycles
system.switch_cpus0.num_int_alu_accesses    613035107                       # Number of integer alu accesses
system.switch_cpus0.num_int_insts           613035107                       # number of integer instructions
system.switch_cpus0.num_int_register_reads   1153918191                       # number of times the integer registers were read
system.switch_cpus0.num_int_register_writes    448034070                       # number of times the integer registers were written
system.switch_cpus0.num_load_insts          122723891                       # Number of load instructions
system.switch_cpus0.num_mem_refs            160612775                       # number of memory refs
system.switch_cpus0.num_store_insts          37888884                       # Number of store instructions
system.switch_cpus0.num_vec_alu_accesses            0                       # Number of vector alu accesses
system.switch_cpus0.num_vec_insts                   0                       # number of vector instructions
system.switch_cpus0.num_vec_register_reads            0                       # number of times the vector registers were read
system.switch_cpus0.num_vec_register_writes            0                       # number of times the vector registers were written
system.switch_cpus0.op_class::No_OpClass       315736      0.04%      0.04% # Class of executed instruction
system.switch_cpus0.op_class::IntAlu        476652261     59.91%     59.95% # Class of executed instruction
system.switch_cpus0.op_class::IntMult         4881054      0.61%     60.56% # Class of executed instruction
system.switch_cpus0.op_class::IntDiv            48563      0.01%     60.57% # Class of executed instruction
system.switch_cpus0.op_class::FloatAdd       29994175      3.77%     64.34% # Class of executed instruction
system.switch_cpus0.op_class::FloatCmp              0      0.00%     64.34% # Class of executed instruction
system.switch_cpus0.op_class::FloatCvt             96      0.00%     64.34% # Class of executed instruction
system.switch_cpus0.op_class::FloatMult             0      0.00%     64.34% # Class of executed instruction
system.switch_cpus0.op_class::FloatMultAcc            0      0.00%     64.34% # Class of executed instruction
system.switch_cpus0.op_class::FloatDiv              0      0.00%     64.34% # Class of executed instruction
system.switch_cpus0.op_class::FloatMisc             0      0.00%     64.34% # Class of executed instruction
system.switch_cpus0.op_class::FloatSqrt             0      0.00%     64.34% # Class of executed instruction
system.switch_cpus0.op_class::SimdAdd             498      0.00%     64.34% # Class of executed instruction
system.switch_cpus0.op_class::SimdAddAcc            0      0.00%     64.34% # Class of executed instruction
system.switch_cpus0.op_class::SimdAlu        20002849      2.51%     66.85% # Class of executed instruction
system.switch_cpus0.op_class::SimdCmp               0      0.00%     66.85% # Class of executed instruction
system.switch_cpus0.op_class::SimdCvt             232      0.00%     66.85% # Class of executed instruction
system.switch_cpus0.op_class::SimdMisc        7655619      0.96%     67.82% # Class of executed instruction
system.switch_cpus0.op_class::SimdMult              0      0.00%     67.82% # Class of executed instruction
system.switch_cpus0.op_class::SimdMultAcc            0      0.00%     67.82% # Class of executed instruction
system.switch_cpus0.op_class::SimdShift           224      0.00%     67.82% # Class of executed instruction
system.switch_cpus0.op_class::SimdShiftAcc            0      0.00%     67.82% # Class of executed instruction
system.switch_cpus0.op_class::SimdDiv               0      0.00%     67.82% # Class of executed instruction
system.switch_cpus0.op_class::SimdSqrt              0      0.00%     67.82% # Class of executed instruction
system.switch_cpus0.op_class::SimdFloatAdd     43010892      5.41%     73.22% # Class of executed instruction
system.switch_cpus0.op_class::SimdFloatAlu            0      0.00%     73.22% # Class of executed instruction
system.switch_cpus0.op_class::SimdFloatCmp        40000      0.01%     73.23% # Class of executed instruction
system.switch_cpus0.op_class::SimdFloatCvt      8512909      1.07%     74.30% # Class of executed instruction
system.switch_cpus0.op_class::SimdFloatDiv      1015001      0.13%     74.42% # Class of executed instruction
system.switch_cpus0.op_class::SimdFloatMisc            0      0.00%     74.42% # Class of executed instruction
system.switch_cpus0.op_class::SimdFloatMult     42869479      5.39%     79.81% # Class of executed instruction
system.switch_cpus0.op_class::SimdFloatMultAcc            0      0.00%     79.81% # Class of executed instruction
system.switch_cpus0.op_class::SimdFloatSqrt         2508      0.00%     79.81% # Class of executed instruction
system.switch_cpus0.op_class::SimdReduceAdd            0      0.00%     79.81% # Class of executed instruction
system.switch_cpus0.op_class::SimdReduceAlu            0      0.00%     79.81% # Class of executed instruction
system.switch_cpus0.op_class::SimdReduceCmp            0      0.00%     79.81% # Class of executed instruction
system.switch_cpus0.op_class::SimdFloatReduceAdd            0      0.00%     79.81% # Class of executed instruction
system.switch_cpus0.op_class::SimdFloatReduceCmp            0      0.00%     79.81% # Class of executed instruction
system.switch_cpus0.op_class::SimdAes               0      0.00%     79.81% # Class of executed instruction
system.switch_cpus0.op_class::SimdAesMix            0      0.00%     79.81% # Class of executed instruction
system.switch_cpus0.op_class::SimdSha1Hash            0      0.00%     79.81% # Class of executed instruction
system.switch_cpus0.op_class::SimdSha1Hash2            0      0.00%     79.81% # Class of executed instruction
system.switch_cpus0.op_class::SimdSha256Hash            0      0.00%     79.81% # Class of executed instruction
system.switch_cpus0.op_class::SimdSha256Hash2            0      0.00%     79.81% # Class of executed instruction
system.switch_cpus0.op_class::SimdShaSigma2            0      0.00%     79.81% # Class of executed instruction
system.switch_cpus0.op_class::SimdShaSigma3            0      0.00%     79.81% # Class of executed instruction
system.switch_cpus0.op_class::SimdPredAlu            0      0.00%     79.81% # Class of executed instruction
system.switch_cpus0.op_class::MemRead        52784401      6.63%     86.45% # Class of executed instruction
system.switch_cpus0.op_class::MemWrite       23978222      3.01%     89.46% # Class of executed instruction
system.switch_cpus0.op_class::FloatMemRead     69939490      8.79%     98.25% # Class of executed instruction
system.switch_cpus0.op_class::FloatMemWrite     13910662      1.75%    100.00% # Class of executed instruction
[...]
system.mem_ctrls1.wrPerTurnAround::total        70708                       # Writes before turning the bus around for reads
system.mem_ctrls1.bytesReadDRAM             153483840                       # Total number of bytes read from DRAM
system.mem_ctrls1.bytesReadWrQ               45233216                       # Total number of bytes read from write queue
system.mem_ctrls1.bytesWritten               78828352                       # Total number of bytes written to DRAM
system.mem_ctrls1.bytesReadSys              198717056                       # Total read bytes from the system interface side
system.mem_ctrls1.bytesWrittenSys            98805888                       # Total written bytes from the system interface side
system.mem_ctrls1.avgRdBW                      134.14                       # Average DRAM read bandwidth in MiByte/s
system.mem_ctrls1.avgWrBW                       68.90                       # Average achieved write bandwidth in MiByte/s
system.mem_ctrls1.avgRdBWSys                   173.68                       # Average system read bandwidth in MiByte/s
system.mem_ctrls1.avgWrBWSys                    86.36                       # Average system write bandwidth in MiByte/s
system.mem_ctrls1.peakBW                     12800.00                       # Theoretical peak bandwidth in MiByte/s
system.mem_ctrls1.busUtil                        1.59                       # Data bus utilization in percentage
system.mem_ctrls1.busUtilRead                    1.05                       # Data bus utilization in percentage for reads
system.mem_ctrls1.busUtilWrite                   0.54                       # Data bus utilization in percentage for writes
system.mem_ctrls1.totGap                 1144172698500                       # Total gap between requests
system.mem_ctrls1.avgGap                    246122.37                       # Average gap between requests
system.mem_ctrls1.masterReadBytes::.ruby.dir_cntrl1    153483840                       # Per-master bytes read from memory
system.mem_ctrls1.masterWriteBytes::.ruby.dir_cntrl1     78828352                       # Per-master bytes write to memory
system.mem_ctrls1.masterReadRate::.ruby.dir_cntrl1 134143913.807152494788                       # Per-master bytes read from memory rate (Bytes/sec)
system.mem_ctrls1.masterWriteRate::.ruby.dir_cntrl1 68895485.389522939920                       # Per-master bytes write to memory rate (Bytes/sec)
system.mem_ctrls1.masterReadAccesses::.ruby.dir_cntrl1      3104954                       # Per-master read serviced memory accesses
system.mem_ctrls1.masterWriteAccesses::.ruby.dir_cntrl1      1543842                       # Per-master write serviced memory accesses
system.mem_ctrls1.masterReadTotalLat::.ruby.dir_cntrl1  76422113132                       # Per-master read total memory access latency
system.mem_ctrls1.masterWriteTotalLat::.ruby.dir_cntrl1 27490039474564                       # Per-master write total memory access latency
system.mem_ctrls1.masterReadAvgLat::.ruby.dir_cntrl1     24612.96                       # Per-master read average memory access latency
system.mem_ctrls1.masterWriteAvgLat::.ruby.dir_cntrl1  17806251.85                       # Per-master write average memory access latency
system.mem_ctrls1.pageHitRate                   61.84                       # Row buffer hit rate, read and write combined
system.mem_ctrls1.rank1.actEnergy          4338720960                       # Energy for activate commands per rank (pJ)
system.mem_ctrls1.rank1.preEnergy          2306058315                       # Energy for precharge commands per rank (pJ)
system.mem_ctrls1.rank1.readEnergy         8070606180                       # Energy for read commands per rank (pJ)
system.mem_ctrls1.rank1.writeEnergy        4068071280                       # Energy for write commands per rank (pJ)
system.mem_ctrls1.rank1.refreshEnergy    90319504080.000015                       # Energy for refresh commands per rank (pJ)
system.mem_ctrls1.rank1.actBackEnergy    374591022810                       # Energy for active background per rank (pJ)
system.mem_ctrls1.rank1.preBackEnergy    123917013600                       # Energy for precharge background per rank (pJ)
system.mem_ctrls1.rank1.actPowerDownEnergy            0                       # Energy for active power-down per rank (pJ)
system.mem_ctrls1.rank1.prePowerDownEnergy            0                       # Energy for precharge power-down per rank (pJ)
system.mem_ctrls1.rank1.selfRefreshEnergy            0                       # Energy for self refresh per rank (pJ)
system.mem_ctrls1.rank1.totalEnergy      607610997225                       # Total energy per rank (pJ)
system.mem_ctrls1.rank1.averagePower       531.048202                       # Core power per rank (mW)
system.mem_ctrls1.rank1.totalIdleTime               0                       # Total Idle time Per DRAM Rank
system.mem_ctrls1.rank1.memoryStateTime::IDLE 318613389093                       # Time in different power states
system.mem_ctrls1.rank1.memoryStateTime::REF  38206220000                       # Time in different power states
system.mem_ctrls1.rank1.memoryStateTime::SREF            0                       # Time in different power states
system.mem_ctrls1.rank1.memoryStateTime::PRE_PDN            0                       # Time in different power states
system.mem_ctrls1.rank1.memoryStateTime::ACT 787353358908                       # Time in different power states
system.mem_ctrls1.rank1.memoryStateTime::ACT_PDN            0                       # Time in different power states
system.mem_ctrls1.rank0.actEnergy          5550907320                       # Energy for activate commands per rank (pJ)
system.mem_ctrls1.rank0.preEnergy          2950358235                       # Energy for precharge commands per rank (pJ)
system.mem_ctrls1.rank0.readEnergy         9052434720                       # Energy for read commands per rank (pJ)
system.mem_ctrls1.rank0.writeEnergy        2361366180                       # Energy for write commands per rank (pJ)
system.mem_ctrls1.rank0.refreshEnergy    90319504080.000015                       # Energy for refresh commands per rank (pJ)
system.mem_ctrls1.rank0.actBackEnergy    414093593160                       # Energy for active background per rank (pJ)
system.mem_ctrls1.rank0.preBackEnergy     90652023360                       # Energy for precharge background per rank (pJ)
system.mem_ctrls1.rank0.actPowerDownEnergy            0                       # Energy for active power-down per rank (pJ)
system.mem_ctrls1.rank0.prePowerDownEnergy            0                       # Energy for precharge power-down per rank (pJ)
system.mem_ctrls1.rank0.selfRefreshEnergy            0                       # Energy for self refresh per rank (pJ)
system.mem_ctrls1.rank0.totalEnergy      614980187055                       # Total energy per rank (pJ)
system.mem_ctrls1.rank0.averagePower       537.488828                       # Core power per rank (mW)
system.mem_ctrls1.rank0.totalIdleTime               0                       # Total Idle time Per DRAM Rank
system.mem_ctrls1.rank0.memoryStateTime::IDLE 231923788248                       # Time in different power states
system.mem_ctrls1.rank0.memoryStateTime::REF  38206220000                       # Time in different power states
system.mem_ctrls1.rank0.memoryStateTime::SREF            0                       # Time in different power states
system.mem_ctrls1.rank0.memoryStateTime::PRE_PDN            0                       # Time in different power states
system.mem_ctrls1.rank0.memoryStateTime::ACT 874042959753                       # Time in different power states
system.mem_ctrls1.rank0.memoryStateTime::ACT_PDN            0                       # Time in different power states
system.mem_ctrls1.power_state.pwrStateResidencyTicks::UNDEFINED 101781385483001                       # Cumulative time (in ticks) in various power states
system.cpu_voltage_domain.voltage                   1                       # Voltage in Volts
system.iobus.trans_dist::ReadReq                  430                       # Transaction distribution
system.iobus.trans_dist::ReadResp                 430                       # Transaction distribution
system.iobus.trans_dist::WriteReq                4944                       # Transaction distribution
system.iobus.trans_dist::WriteResp               4944                       # Transaction distribution
system.iobus.pkt_count_system.pc.south_bridge.io_apic.int_master::system.ruby.l1_cntrl1.sequencer.pio-slave-port          270                       # Packet count per connected master and slave (bytes)
system.iobus.pkt_count_system.pc.south_bridge.io_apic.int_master::total          270                       # Packet count per connected master and slave (bytes)
system.iobus.pkt_count_system.ruby.l1_cntrl0.sequencer.mem-master-port::system.pc.com_1.pio            2                       # Packet count per connected master and slave (bytes)
system.iobus.pkt_count_system.ruby.l1_cntrl0.sequencer.mem-master-port::system.ruby.l1_cntrl0.sequencer.pio-slave-port         2316                       # Packet count per connected master and slave (bytes)
system.iobus.pkt_count_system.ruby.l1_cntrl0.sequencer.mem-master-port::total         2318                       # Packet count per connected master and slave (bytes)
system.iobus.pkt_count_system.ruby.l1_cntrl1.sequencer.mem-master-port::system.pc.south_bridge.ide.pio           24                       # Packet count per connected master and slave (bytes)
system.iobus.pkt_count_system.ruby.l1_cntrl1.sequencer.mem-master-port::system.pc.com_1.pio         1074                       # Packet count per connected master and slave (bytes)
system.iobus.pkt_count_system.ruby.l1_cntrl1.sequencer.mem-master-port::system.ruby.l1_cntrl0.sequencer.pio-slave-port            2                       # Packet count per connected master and slave (bytes)
system.iobus.pkt_count_system.ruby.l1_cntrl1.sequencer.mem-master-port::system.ruby.l1_cntrl1.sequencer.pio-slave-port         2326                       # Packet count per connected master and slave (bytes)
system.iobus.pkt_count_system.ruby.l1_cntrl1.sequencer.mem-master-port::system.ruby.l1_cntrl2.sequencer.pio-slave-port            2                       # Packet count per connected master and slave (bytes)
system.iobus.pkt_count_system.ruby.l1_cntrl1.sequencer.mem-master-port::system.ruby.l1_cntrl3.sequencer.pio-slave-port            2                       # Packet count per connected master and slave (bytes)
system.iobus.pkt_count_system.ruby.l1_cntrl1.sequencer.mem-master-port::total         3430                       # Packet count per connected master and slave (bytes)
system.iobus.pkt_count_system.ruby.l1_cntrl2.sequencer.mem-master-port::system.pc.south_bridge.ide.pio           34                       # Packet count per connected master and slave (bytes)
system.iobus.pkt_count_system.ruby.l1_cntrl2.sequencer.mem-master-port::system.ruby.l1_cntrl0.sequencer.pio-slave-port            8                       # Packet count per connected master and slave (bytes)
system.iobus.pkt_count_system.ruby.l1_cntrl2.sequencer.mem-master-port::system.ruby.l1_cntrl2.sequencer.pio-slave-port         2330                       # Packet count per connected master and slave (bytes)
system.iobus.pkt_count_system.ruby.l1_cntrl2.sequencer.mem-master-port::system.ruby.l1_cntrl3.sequencer.pio-slave-port            2                       # Packet count per connected master and slave (bytes)
system.iobus.pkt_count_system.ruby.l1_cntrl2.sequencer.mem-master-port::total         2374                       # Packet count per connected master and slave (bytes)
system.iobus.pkt_count_system.ruby.l1_cntrl3.sequencer.mem-master-port::system.ruby.l1_cntrl0.sequencer.pio-slave-port           10                       # Packet count per connected master and slave (bytes)
system.iobus.pkt_count_system.ruby.l1_cntrl3.sequencer.mem-master-port::system.ruby.l1_cntrl1.sequencer.pio-slave-port            2                       # Packet count per connected master and slave (bytes)
system.iobus.pkt_count_system.ruby.l1_cntrl3.sequencer.mem-master-port::system.ruby.l1_cntrl2.sequencer.pio-slave-port            2                       # Packet count per connected master and slave (bytes)
system.iobus.pkt_count_system.ruby.l1_cntrl3.sequencer.mem-master-port::system.ruby.l1_cntrl3.sequencer.pio-slave-port         2342                       # Packet count per connected master and slave (bytes)
system.iobus.pkt_count_system.ruby.l1_cntrl3.sequencer.mem-master-port::total         2356                       # Packet count per connected master and slave (bytes)
system.iobus.pkt_count::total                   10748                       # Packet count per connected master and slave (bytes)
system.iobus.pkt_size_system.pc.south_bridge.io_apic.int_master::system.ruby.l1_cntrl1.sequencer.pio-slave-port          540                       # Cumulative packet size per connected master and slave (bytes)
system.iobus.pkt_size_system.pc.south_bridge.io_apic.int_master::total          540                       # Cumulative packet size per connected master and slave (bytes)
system.iobus.pkt_size_system.ruby.l1_cntrl0.sequencer.mem-master-port::system.pc.com_1.pio            1                       # Cumulative packet size per connected master and slave (bytes)
system.iobus.pkt_size_system.ruby.l1_cntrl0.sequencer.mem-master-port::system.ruby.l1_cntrl0.sequencer.pio-slave-port         4632                       # Cumulative packet size per connected master and slave (bytes)
system.iobus.pkt_size_system.ruby.l1_cntrl0.sequencer.mem-master-port::total         4633                       # Cumulative packet size per connected master and slave (bytes)
system.iobus.pkt_size_system.ruby.l1_cntrl1.sequencer.mem-master-port::system.pc.south_bridge.ide.pio           12                       # Cumulative packet size per connected master and slave (bytes)
system.iobus.pkt_size_system.ruby.l1_cntrl1.sequencer.mem-master-port::system.pc.com_1.pio          537                       # Cumulative packet size per connected master and slave (bytes)
system.iobus.pkt_size_system.ruby.l1_cntrl1.sequencer.mem-master-port::system.ruby.l1_cntrl0.sequencer.pio-slave-port            4                       # Cumulative packet size per connected master and slave (bytes)
system.iobus.pkt_size_system.ruby.l1_cntrl1.sequencer.mem-master-port::system.ruby.l1_cntrl1.sequencer.pio-slave-port         4652                       # Cumulative packet size per connected master and slave (bytes)
system.iobus.pkt_size_system.ruby.l1_cntrl1.sequencer.mem-master-port::system.ruby.l1_cntrl2.sequencer.pio-slave-port            4                       # Cumulative packet size per connected master and slave (bytes)
system.iobus.pkt_size_system.ruby.l1_cntrl1.sequencer.mem-master-port::system.ruby.l1_cntrl3.sequencer.pio-slave-port            4                       # Cumulative packet size per connected master and slave (bytes)
system.iobus.pkt_size_system.ruby.l1_cntrl1.sequencer.mem-master-port::total         5213                       # Cumulative packet size per connected master and slave (bytes)
system.iobus.pkt_size_system.ruby.l1_cntrl2.sequencer.mem-master-port::system.pc.south_bridge.ide.pio           20                       # Cumulative packet size per connected master and slave (bytes)
system.iobus.pkt_size_system.ruby.l1_cntrl2.sequencer.mem-master-port::system.ruby.l1_cntrl0.sequencer.pio-slave-port           16                       # Cumulative packet size per connected master and slave (bytes)
system.iobus.pkt_size_system.ruby.l1_cntrl2.sequencer.mem-master-port::system.ruby.l1_cntrl2.sequencer.pio-slave-port         4660                       # Cumulative packet size per connected master and slave (bytes)
system.iobus.pkt_size_system.ruby.l1_cntrl2.sequencer.mem-master-port::system.ruby.l1_cntrl3.sequencer.pio-slave-port            4                       # Cumulative packet size per connected master and slave (bytes)
system.iobus.pkt_size_system.ruby.l1_cntrl2.sequencer.mem-master-port::total         4700                       # Cumulative packet size per connected master and slave (bytes)
system.iobus.pkt_size_system.ruby.l1_cntrl3.sequencer.mem-master-port::system.ruby.l1_cntrl0.sequencer.pio-slave-port           20                       # Cumulative packet size per connected master and slave (bytes)
system.iobus.pkt_size_system.ruby.l1_cntrl3.sequencer.mem-master-port::system.ruby.l1_cntrl1.sequencer.pio-slave-port            4                       # Cumulative packet size per connected master and slave (bytes)
system.iobus.pkt_size_system.ruby.l1_cntrl3.sequencer.mem-master-port::system.ruby.l1_cntrl2.sequencer.pio-slave-port            4                       # Cumulative packet size per connected master and slave (bytes)
system.iobus.pkt_size_system.ruby.l1_cntrl3.sequencer.mem-master-port::system.ruby.l1_cntrl3.sequencer.pio-slave-port         4684                       # Cumulative packet size per connected master and slave (bytes)
system.iobus.pkt_size_system.ruby.l1_cntrl3.sequencer.mem-master-port::total         4712                       # Cumulative packet size per connected master and slave (bytes)
system.iobus.pkt_size::total                    19798                       # Cumulative packet size per connected master and slave (bytes)
system.iobus.reqLayer2.occupancy                48500                       # Layer occupancy (ticks)
system.iobus.reqLayer2.utilization                0.0                       # Layer utilization (%)
system.iobus.power_state.pwrStateResidencyTicks::UNDEFINED 101781385483001                       # Cumulative time (in ticks) in various power states
system.iobus.reqLayer19.occupancy             3187921                       # Layer occupancy (ticks)
system.iobus.reqLayer19.utilization               0.0                       # Layer utilization (%)
system.iobus.reqLayer17.occupancy             3148499                       # Layer occupancy (ticks)
system.iobus.reqLayer17.utilization               0.0                       # Layer utilization (%)
system.iobus.reqLayer12.occupancy              678500                       # Layer occupancy (ticks)
system.iobus.reqLayer12.utilization               0.0                       # Layer utilization (%)
system.iobus.reqLayer18.occupancy             3459846                       # Layer occupancy (ticks)
system.iobus.reqLayer18.utilization               0.0                       # Layer utilization (%)
system.iobus.respLayer9.occupancy             1771000                       # Layer occupancy (ticks)
system.iobus.respLayer9.utilization               0.0                       # Layer utilization (%)
system.iobus.respLayer5.occupancy             2710500                       # Layer occupancy (ticks)
system.iobus.respLayer5.utilization               0.0                       # Layer utilization (%)
system.iobus.respLayer7.occupancy             1779000                       # Layer occupancy (ticks)
system.iobus.respLayer7.utilization               0.0                       # Layer utilization (%)
system.iobus.respLayer0.occupancy              200999                       # Layer occupancy (ticks)
system.iobus.respLayer0.utilization               0.0                       # Layer utilization (%)
system.iobus.respLayer3.occupancy             1738000                       # Layer occupancy (ticks)
system.iobus.respLayer3.utilization               0.0                       # Layer utilization (%)
system.iobus.reqLayer20.occupancy             3163975                       # Layer occupancy (ticks)
system.iobus.reqLayer20.utilization               0.0                       # Layer utilization (%)

---------- End Simulation Statistics   ----------
