
---------- Begin Simulation Statistics ----------
final_tick                               103308064514001                       # Number of ticks from beginning of simulation (restored from checkpoints and never reset)
host_inst_rate                                 765918                       # Simulator instruction rate (inst/s)
host_mem_usage                                1859580                       # Number of bytes of host memory used
host_op_rate                                   903174                       # Simulator op (including micro ops) rate (op/s)
host_seconds                                  9327.27                       # Real time elapsed on the host
host_tick_rate                              181923960                       # Simulator tick rate (ticks/s)
sim_freq                                 1000000000000                       # Frequency of simulated ticks
sim_insts                                  7143924688                       # Number of instructions simulated
sim_ops                                    8424150507                       # Number of ops (including micro ops) simulated
sim_seconds                                  1.696855                       # Number of seconds simulated
sim_ticks                                1696854550501                       # Number of ticks simulated
system.cpu0.committedInsts                          0                       # Number of instructions committed
system.cpu0.dtb.rdAccesses                          0                       # TLB accesses on read requests
system.cpu0.dtb.rdMisses                            0                       # TLB misses on read requests
system.cpu0.dtb.wrAccesses                          0                       # TLB accesses on write requests
system.cpu0.dtb.wrMisses                            0                       # TLB misses on write requests
system.cpu0.itb.rdAccesses                          0                       # TLB accesses on read requests
system.cpu0.itb.rdMisses                            0                       # TLB misses on read requests
system.cpu0.itb.wrAccesses                          0                       # TLB accesses on write requests
system.cpu0.itb.wrMisses                            0                       # TLB misses on write requests
system.cpu0.kern.inst.arm                           0                       # number of arm instructions executed
system.cpu0.kern.inst.quiesce                       0                       # number of quiesce instructions executed
system.cpu0.numCoalescedMMIO                        0                       # number of coalesced memory mapped IO requests
system.cpu0.numCycles                               0                       # number of cpu cycles simulated
system.cpu0.numExitSignal                           0                       # exits due to signal delivery
system.cpu0.numHalt                                 0                       # number of VM exits due to wait for interrupt instructions
system.cpu0.numHypercalls                           0                       # number of hypercalls
system.cpu0.numIO                                   0                       # number of VM exits due to legacy IO
system.cpu0.numInterrupts                           0                       # number of interrupts delivered
system.cpu0.numMMIO                                 0                       # number of VM exits due to memory mapped IO
system.cpu0.numVMExits                              0                       # total number of KVM exits
system.cpu0.numVMHalfEntries                        0                       # number of KVM entries to finalize pending operations
system.cpu0.numWorkItemsCompleted                   0                       # number of work items this cpu completed
system.cpu0.numWorkItemsStarted                     0                       # number of work items this cpu started
system.cpu1.committedInsts                          0                       # Number of instructions committed
system.cpu1.dtb.rdAccesses                          0                       # TLB accesses on read requests
system.cpu1.dtb.rdMisses                            0                       # TLB misses on read requests
system.cpu1.dtb.wrAccesses                          0                       # TLB accesses on write requests
system.cpu1.dtb.wrMisses                            0                       # TLB misses on write requests
system.cpu1.itb.rdAccesses                          0                       # TLB accesses on read requests
system.cpu1.itb.rdMisses                            0                       # TLB misses on read requests
system.cpu1.itb.wrAccesses                          0                       # TLB accesses on write requests
system.cpu1.itb.wrMisses                            0                       # TLB misses on write requests
system.cpu1.kern.inst.arm                           0                       # number of arm instructions executed
system.cpu1.kern.inst.quiesce                       0                       # number of quiesce instructions executed
system.cpu1.numCoalescedMMIO                        0                       # number of coalesced memory mapped IO requests
system.cpu1.numCycles                               0                       # number of cpu cycles simulated
system.cpu1.numExitSignal                           0                       # exits due to signal delivery
system.cpu1.numHalt                                 0                       # number of VM exits due to wait for interrupt instructions
system.cpu1.numHypercalls                           0                       # number of hypercalls
system.cpu1.numIO                                   0                       # number of VM exits due to legacy IO
system.cpu1.numInterrupts                           0                       # number of interrupts delivered
system.cpu1.numMMIO                                 0                       # number of VM exits due to memory mapped IO
system.cpu1.numVMExits                              0                       # total number of KVM exits
system.cpu1.numVMHalfEntries                        0                       # number of KVM entries to finalize pending operations
system.cpu1.numWorkItemsCompleted                   0                       # number of work items this cpu completed
system.cpu1.numWorkItemsStarted                     0                       # number of work items this cpu started
system.cpu2.committedInsts                          0                       # Number of instructions committed
system.cpu2.dtb.rdAccesses                          0                       # TLB accesses on read requests
system.cpu2.dtb.rdMisses                            0                       # TLB misses on read requests
system.cpu2.dtb.wrAccesses                          0                       # TLB accesses on write requests
system.cpu2.dtb.wrMisses                            0                       # TLB misses on write requests
system.cpu2.itb.rdAccesses                          0                       # TLB accesses on read requests
system.cpu2.itb.rdMisses                            0                       # TLB misses on read requests
system.cpu2.itb.wrAccesses                          0                       # TLB accesses on write requests
system.cpu2.itb.wrMisses                            0                       # TLB misses on write requests
system.cpu2.kern.inst.arm                           0                       # number of arm instructions executed
system.cpu2.kern.inst.quiesce                       0                       # number of quiesce instructions executed
system.cpu2.numCoalescedMMIO                        0                       # number of coalesced memory mapped IO requests
system.cpu2.numCycles                               0                       # number of cpu cycles simulated
system.cpu2.numExitSignal                           0                       # exits due to signal delivery
system.cpu2.numHalt                                 0                       # number of VM exits due to wait for interrupt instructions
system.cpu2.numHypercalls                           0                       # number of hypercalls
system.cpu2.numIO                                   0                       # number of VM exits due to legacy IO
system.cpu2.numInterrupts                           0                       # number of interrupts delivered
system.cpu2.numMMIO                                 0                       # number of VM exits due to memory mapped IO
system.cpu2.numVMExits                              0                       # total number of KVM exits
system.cpu2.numVMHalfEntries                        0                       # number of KVM entries to finalize pending operations
system.cpu2.numWorkItemsCompleted                   0                       # number of work items this cpu completed
system.cpu2.numWorkItemsStarted                     0                       # number of work items this cpu started
system.cpu3.committedInsts                          0                       # Number of instructions committed
system.cpu3.dtb.rdAccesses                          0                       # TLB accesses on read requests
system.cpu3.dtb.rdMisses                            0                       # TLB misses on read requests
system.cpu3.dtb.wrAccesses                          0                       # TLB accesses on write requests
system.cpu3.dtb.wrMisses                            0                       # TLB misses on write requests
system.cpu3.itb.rdAccesses                          0                       # TLB accesses on read requests
system.cpu3.itb.rdMisses                            0                       # TLB misses on read requests
system.cpu3.itb.wrAccesses                          0                       # TLB accesses on write requests
system.cpu3.itb.wrMisses                            0                       # TLB misses on write requests
system.cpu3.kern.inst.arm                           0                       # number of arm instructions executed
system.cpu3.kern.inst.quiesce                       0                       # number of quiesce instructions executed
system.cpu3.numCoalescedMMIO                        0                       # number of coalesced memory mapped IO requests
system.cpu3.numCycles                               0                       # number of cpu cycles simulated
system.cpu3.numExitSignal                           0                       # exits due to signal delivery
system.cpu3.numHalt                                 0                       # number of VM exits due to wait for interrupt instructions
system.cpu3.numHypercalls                           0                       # number of hypercalls
system.cpu3.numIO                                   0                       # number of VM exits due to legacy IO
system.cpu3.numInterrupts                           0                       # number of interrupts delivered
system.cpu3.numMMIO                                 0                       # number of VM exits due to memory mapped IO
system.cpu3.numVMExits                              0                       # total number of KVM exits
system.cpu3.numVMHalfEntries                        0                       # number of KVM entries to finalize pending operations
system.cpu3.numWorkItemsCompleted                   0                       # number of work items this cpu completed
system.cpu3.numWorkItemsStarted                     0                       # number of work items this cpu started
system.pc.south_bridge.ide.disks.dma_read_bytes            0                       # Number of bytes transfered via DMA reads (not PRD).
system.pc.south_bridge.ide.disks.dma_read_full_pages            0                       # Number of full page size DMA reads (not PRD).
system.pc.south_bridge.ide.disks.dma_read_txs            0                       # Number of DMA read transactions (not PRD).
system.pc.south_bridge.ide.disks.dma_write_bytes        53248                       # Number of bytes transfered via DMA writes.
system.pc.south_bridge.ide.disks.dma_write_full_pages           13                       # Number of full page size DMA writes.
system.pc.south_bridge.ide.disks.dma_write_txs           13                       # Number of DMA write transactions.
system.ruby.DMA_Controller.I.allocI_load |           2    100.00%    100.00% |           0      0.00%    100.00%
system.ruby.DMA_Controller.I.allocI_load::total            2                      
system.ruby.DMA_Controller.I.allocI_store |         832    100.00%    100.00% |           0      0.00%    100.00%
system.ruby.DMA_Controller.I.allocI_store::total          832                      
system.ruby.DMA_Controller.I.deallocfwdfrom_in |         128    100.00%    100.00% |           0      0.00%    100.00%
system.ruby.DMA_Controller.I.deallocfwdfrom_in::total          128                      
system.ruby.DMA_Controller.M.allocTBE    |         128    100.00%    100.00% |           0      0.00%    100.00%
system.ruby.DMA_Controller.M.allocTBE::total          128                      
system.ruby.DMA_Controller.M.externalstoreMrespfrom_in |         832    100.00%    100.00% |           0      0.00%    100.00%
system.ruby.DMA_Controller.M.externalstoreMrespfrom_in::total          832                      
system.ruby.DMA_Controller.M_evict.Stallmandatory_in |        1910    100.00%    100.00% |           0      0.00%    100.00%
system.ruby.DMA_Controller.M_evict.Stallmandatory_in::total         1910                      
system.ruby.DMA_Controller.S.SloadSEvent |          11    100.00%    100.00% |           0      0.00%    100.00%
system.ruby.DMA_Controller.S.SloadSEvent::total           11                      
system.ruby.DMA_Controller.S.allocTBE    |           2    100.00%    100.00% |           0      0.00%    100.00%
system.ruby.DMA_Controller.S.allocTBE::total            2                      
system.ruby.DMA_Controller.S.externalloadSrespfrom_in |           2    100.00%    100.00% |           0      0.00%    100.00%
system.ruby.DMA_Controller.S.externalloadSrespfrom_in::total            2                      
system.ruby.DMA_Controller.SloadSEvent   |          11    100.00%    100.00% |           0      0.00%    100.00%
system.ruby.DMA_Controller.SloadSEvent::total           11                      
system.ruby.DMA_Controller.Stallmandatory_in |        1910    100.00%    100.00% |           0      0.00%    100.00%
system.ruby.DMA_Controller.Stallmandatory_in::total         1910                      
system.ruby.DMA_Controller.allocI_load   |           2    100.00%    100.00% |           0      0.00%    100.00%
system.ruby.DMA_Controller.allocI_load::total            2                      
system.ruby.DMA_Controller.allocI_store  |         832    100.00%    100.00% |           0      0.00%    100.00%
system.ruby.DMA_Controller.allocI_store::total          832                      
system.ruby.DMA_Controller.allocTBE      |         130    100.00%    100.00% |           0      0.00%    100.00%
system.ruby.DMA_Controller.allocTBE::total          130                      
system.ruby.DMA_Controller.deallocfwdfrom_in |         128    100.00%    100.00% |           0      0.00%    100.00%
system.ruby.DMA_Controller.deallocfwdfrom_in::total          128                      
system.ruby.DMA_Controller.externalloadSrespfrom_in |           2    100.00%    100.00% |           0      0.00%    100.00%
system.ruby.DMA_Controller.externalloadSrespfrom_in::total            2                      
system.ruby.DMA_Controller.externalstoreMrespfrom_in |         832    100.00%    100.00% |           0      0.00%    100.00%
system.ruby.DMA_Controller.externalstoreMrespfrom_in::total          832                      
system.ruby.Directory_Controller.I.allocTBE |     6131933     25.76%     25.76% |     5970780     25.08%     50.85% |     5943914     24.97%     75.82% |     5755908     24.18%    100.00%
system.ruby.Directory_Controller.I.allocTBE::total     23802535                      
system.ruby.Directory_Controller.I.deallocTBE |     6131119     25.76%     25.76% |     5970008     25.08%     50.85% |     5943161     24.97%     75.82% |     5755113     24.18%    100.00%
system.ruby.Directory_Controller.I.deallocTBE::total     23799401                      
system.ruby.Directory_Controller.I_GetML1C1C1_0.Stallreqto_in |           0      0.00%      0.00% |           0      0.00%      0.00% |           2     66.67%     66.67% |           1     33.33%    100.00%
system.ruby.Directory_Controller.I_GetML1C1C1_0.Stallreqto_in::total            3                      
system.ruby.Directory_Controller.I_GetSL1C1C1_0.Stallreqto_in |        2778     16.11%     16.11% |       11142     64.61%     80.72% |        2272     13.18%     93.90% |        1052      6.10%    100.00%
system.ruby.Directory_Controller.I_GetSL1C1C1_0.Stallreqto_in::total        17244                      
system.ruby.Directory_Controller.M.allocTBE |     3218194     24.67%     24.67% |     3261808     25.01%     49.68% |     3293441     25.25%     74.93% |     3270005     25.07%    100.00%
system.ruby.Directory_Controller.M.allocTBE::total     13043448                      
system.ruby.Directory_Controller.M.deallocTBE |     3218530     24.67%     24.67% |     3262129     25.01%     49.68% |     3293779     25.25%     74.93% |     3270331     25.07%    100.00%
system.ruby.Directory_Controller.M.deallocTBE::total     13044769                      
system.ruby.Directory_Controller.M_GetM.Progress |       10157     14.25%     14.25% |       17292     24.27%     38.52% |       42085     59.06%     97.58% |        1723      2.42%    100.00%
system.ruby.Directory_Controller.M_GetM.Progress::total        71257                      
system.ruby.Directory_Controller.M_GetM.Stallreqto_in |           3      3.16%      3.16% |           9      9.47%     12.63% |          80     84.21%     96.84% |           3      3.16%    100.00%
system.ruby.Directory_Controller.M_GetM.Stallreqto_in::total           95                      
system.ruby.Directory_Controller.M_GetS.Progress |       35874     20.96%     20.96% |       64670     37.79%     58.75% |       52201     30.50%     89.25% |       18390     10.75%    100.00%
system.ruby.Directory_Controller.M_GetS.Progress::total       171135                      
system.ruby.Directory_Controller.M_GetS.Stallreqto_in |         912     32.18%     32.18% |         142      5.01%     37.19% |        1273     44.92%     82.11% |         507     17.89%    100.00%
system.ruby.Directory_Controller.M_GetS.Stallreqto_in::total         2834                      
system.ruby.Directory_Controller.M_GetS_WBL1C1C1_0.Stallreqto_in |       11856     35.61%     35.61% |       11337     34.05%     69.66% |        5807     17.44%     87.10% |        4294     12.90%    100.00%
system.ruby.Directory_Controller.M_GetS_WBL1C1C1_0.Stallreqto_in::total        33294                      
system.ruby.Directory_Controller.M_PutML1C1C1_0.Stallreqto_in |           8     42.11%     42.11% |           5     26.32%     68.42% |           3     15.79%     84.21% |           3     15.79%    100.00%
system.ruby.Directory_Controller.M_PutML1C1C1_0.Stallreqto_in::total           19                      
system.ruby.Directory_Controller.Progress |       46031     18.99%     18.99% |       81962     33.81%     52.80% |       94286     38.90%     91.70% |       20113      8.30%    100.00%
system.ruby.Directory_Controller.Progress::total       242392                      
system.ruby.Directory_Controller.S.allocTBE |     7584748     26.43%     26.43% |     7151306     24.92%     51.35% |     7002150     24.40%     75.75% |     6959256     24.25%    100.00%
system.ruby.Directory_Controller.S.allocTBE::total     28697460                      
system.ruby.Directory_Controller.S.deallocTBE |     7585226     26.43%     26.43% |     7151757     24.92%     51.35% |     7002565     24.40%     75.75% |     6959725     24.25%    100.00%
system.ruby.Directory_Controller.S.deallocTBE::total     28699273                      
system.ruby.Directory_Controller.S_GetM.Stallreqto_in |        7437     17.88%     17.88% |        9277     22.31%     40.19% |       15317     36.83%     77.02% |        9559     22.98%    100.00%
system.ruby.Directory_Controller.S_GetM.Stallreqto_in::total        41590                      
system.ruby.Directory_Controller.S_GetM.allocTBE |       29490     17.97%     17.97% |       66851     40.74%     58.71% |       50953     31.05%     89.76% |       16801     10.24%    100.00%
system.ruby.Directory_Controller.S_GetM.allocTBE::total       164095                      
system.ruby.Directory_Controller.S_GetM.deallocTBE |       29490     17.97%     17.97% |       66851     40.74%     58.71% |       50953     31.05%     89.76% |       16801     10.24%    100.00%
system.ruby.Directory_Controller.S_GetM.deallocTBE::total       164095                      
system.ruby.Directory_Controller.S_GetML1C1C1_0.Stallreqto_in |           0      0.00%      0.00% |           5      5.49%      5.49% |          86     94.51%    100.00% |           0      0.00%    100.00%
system.ruby.Directory_Controller.S_GetML1C1C1_0.Stallreqto_in::total           91                      
system.ruby.Directory_Controller.S_GetML1C1C1_2.Stallreqto_in |          56      7.54%      7.54% |         322     43.34%     50.87% |         352     47.38%     98.25% |          13      1.75%    100.00%
system.ruby.Directory_Controller.S_GetML1C1C1_2.Stallreqto_in::total          743                      
system.ruby.Directory_Controller.S_GetML1C1C1_3.Stallreqto_in |          16     27.12%     27.12% |          12     20.34%     47.46% |          11     18.64%     66.10% |          20     33.90%    100.00%
system.ruby.Directory_Controller.S_GetML1C1C1_3.Stallreqto_in::total           59                      
system.ruby.Directory_Controller.S_GetSL1C1C1_0.Stallreqto_in |       14920     35.04%     35.04% |       15636     36.72%     71.77% |        5829     13.69%     85.46% |        6191     14.54%    100.00%
system.ruby.Directory_Controller.S_GetSL1C1C1_0.Stallreqto_in::total        42576                      
system.ruby.Directory_Controller.Stallreqto_in |       37986     27.42%     27.42% |       47887     34.56%     61.98% |       31032     22.40%     84.38% |       21643     15.62%    100.00%
system.ruby.Directory_Controller.Stallreqto_in::total       138548                      
system.ruby.Directory_Controller.allocTBE |    16964365     25.82%     25.82% |    16450745     25.04%     50.85% |    16290458     24.79%     75.65% |    16001970     24.35%    100.00%
system.ruby.Directory_Controller.allocTBE::total     65707538                      
system.ruby.Directory_Controller.deallocTBE |    16964365     25.82%     25.82% |    16450745     25.04%     50.85% |    16290458     24.79%     75.65% |    16001970     24.35%    100.00%
system.ruby.Directory_Controller.deallocTBE::total     65707538                      
system.ruby.IFETCH.hit_latency_hist_seqr::bucket_size            1                      
system.ruby.IFETCH.hit_latency_hist_seqr::max_bucket            9                      
system.ruby.IFETCH.hit_latency_hist_seqr::samples   2922788057                      
system.ruby.IFETCH.hit_latency_hist_seqr |  2922788057    100.00%    100.00% |           0      0.00%    100.00% |           0      0.00%    100.00% |           0      0.00%    100.00% |           0      0.00%    100.00% |           0      0.00%    100.00% |           0      0.00%    100.00% |           0      0.00%    100.00% |           0      0.00%    100.00% |           0      0.00%    100.00%
system.ruby.IFETCH.hit_latency_hist_seqr::total   2922788057                      
system.ruby.IFETCH.latency_hist_seqr::bucket_size            1                      
system.ruby.IFETCH.latency_hist_seqr::max_bucket            9                      
system.ruby.IFETCH.latency_hist_seqr::samples   2932962646                      
system.ruby.IFETCH.latency_hist_seqr     |  2932962646    100.00%    100.00% |           0      0.00%    100.00% |           0      0.00%    100.00% |           0      0.00%    100.00% |           0      0.00%    100.00% |           0      0.00%    100.00% |           0      0.00%    100.00% |           0      0.00%    100.00% |           0      0.00%    100.00% |           0      0.00%    100.00%
system.ruby.IFETCH.latency_hist_seqr::total   2932962646                      
system.ruby.IFETCH.miss_latency_hist_seqr::bucket_size            1                      
system.ruby.IFETCH.miss_latency_hist_seqr::max_bucket            9                      
system.ruby.IFETCH.miss_latency_hist_seqr::samples     10174589                      
system.ruby.IFETCH.miss_latency_hist_seqr |    10174589    100.00%    100.00% |           0      0.00%    100.00% |           0      0.00%    100.00% |           0      0.00%    100.00% |           0      0.00%    100.00% |           0      0.00%    100.00% |           0      0.00%    100.00% |           0      0.00%    100.00% |           0      0.00%    100.00% |           0      0.00%    100.00%
system.ruby.IFETCH.miss_latency_hist_seqr::total     10174589                      
system.ruby.L1Cache_Controller.I.allocI_load |     6238472     27.26%     27.26% |     4506326     19.69%     46.94% |     4598816     20.09%     67.03% |     7545529     32.97%    100.00%
system.ruby.L1Cache_Controller.I.allocI_load::total     22889143                      
system.ruby.L1Cache_Controller.I.allocI_store |     1667019     23.86%     23.86% |     1632676     23.37%     47.23% |     1594819     22.83%     70.05% |     2092587     29.95%    100.00%
system.ruby.L1Cache_Controller.I.allocI_store::total      6987101                      
system.ruby.L1Cache_Controller.I.deallocfwdfrom_in |     7904526     26.46%     26.46% |     6138038     20.55%     47.01% |     6192620     20.73%     67.74% |     9637097     32.26%    100.00%
system.ruby.L1Cache_Controller.I.deallocfwdfrom_in::total     29872281                      
system.ruby.L1Cache_Controller.I_store.Progress |        7157     54.10%     54.10% |        2143     16.20%     70.29% |        1880     14.21%     84.50% |        2050     15.50%    100.00%
system.ruby.L1Cache_Controller.I_store.Progress::total        13230                      
system.ruby.L1Cache_Controller.I_store.Stallfwdfrom_in |          83     22.19%     22.19% |          81     21.66%     43.85% |          99     26.47%     70.32% |         111     29.68%    100.00%
system.ruby.L1Cache_Controller.I_store.Stallfwdfrom_in::total          374                      
system.ruby.L1Cache_Controller.M.MloadMEvent |    95507019     21.81%     21.81% |   116579873     26.62%     48.43% |   107080071     24.45%     72.87% |   118798966     27.13%    100.00%
system.ruby.L1Cache_Controller.M.MloadMEvent::total    437965929                      
system.ruby.L1Cache_Controller.M.MstoreMEvent |    78526463     22.92%     22.92% |    84651786     24.71%     47.63% |    81404049     23.76%     71.39% |    98020608     28.61%    100.00%
system.ruby.L1Cache_Controller.M.MstoreMEvent::total    342602906                      
system.ruby.L1Cache_Controller.M.allocTBE |     3069910     23.54%     23.54% |     3172318     24.32%     47.86% |     3048436     23.37%     71.23% |     3752604     28.77%    100.00%
system.ruby.L1Cache_Controller.M.allocTBE::total     13043268                      
system.ruby.L1Cache_Controller.M.externalstoreMrespfrom_in |     3070067     23.54%     23.54% |     3172440     24.32%     47.86% |     3048588     23.37%     71.23% |     3752790     28.77%    100.00%
system.ruby.L1Cache_Controller.M.externalstoreMrespfrom_in::total     13043885                      
system.ruby.L1Cache_Controller.M_evict.Stallmandatory_in |       15969     26.59%     26.59% |       15634     26.03%     52.62% |       14318     23.84%     76.46% |       14141     23.54%    100.00%
system.ruby.L1Cache_Controller.M_evict.Stallmandatory_in::total        60062                      
system.ruby.L1Cache_Controller.M_evict_x_I.Progress |           3     33.33%     33.33% |           0      0.00%     33.33% |           2     22.22%     55.56% |           4     44.44%    100.00%
system.ruby.L1Cache_Controller.M_evict_x_I.Progress::total            9                      
system.ruby.L1Cache_Controller.M_evict_x_I.Stallmandatory_in |           9     30.00%     30.00% |           0      0.00%     30.00% |           7     23.33%     53.33% |          14     46.67%    100.00%
system.ruby.L1Cache_Controller.M_evict_x_I.Stallmandatory_in::total           30                      
system.ruby.L1Cache_Controller.MloadMEvent |    95507019     21.81%     21.81% |   116579873     26.62%     48.43% |   107080071     24.45%     72.87% |   118798966     27.13%    100.00%
system.ruby.L1Cache_Controller.MloadMEvent::total    437965929                      
system.ruby.L1Cache_Controller.MstoreMEvent |    78526463     22.92%     22.92% |    84651786     24.71%     47.63% |    81404049     23.76%     71.39% |    98020608     28.61%    100.00%
system.ruby.L1Cache_Controller.MstoreMEvent::total    342602906                      
system.ruby.L1Cache_Controller.Progress  |     1461438     23.39%     23.39% |     1578807     25.26%     48.65% |     1498866     23.99%     72.64% |     1709947     27.36%    100.00%
system.ruby.L1Cache_Controller.Progress::total      6249058                      
system.ruby.L1Cache_Controller.S.SloadSEvent |   717830755     23.20%     23.20% |   785198971     25.38%     48.58% |   763288482     24.67%     73.25% |   827428561     26.75%    100.00%
system.ruby.L1Cache_Controller.S.SloadSEvent::total   3093746769                      
system.ruby.L1Cache_Controller.S.allocTBE |     6286662     27.27%     27.27% |     4546139     19.72%     46.98% |     4639088     20.12%     67.10% |     7585020     32.90%    100.00%
system.ruby.L1Cache_Controller.S.allocTBE::total     23056909                      
system.ruby.L1Cache_Controller.S.deallocTBE |       48998     28.64%     28.64% |       40655     23.76%     52.39% |       41135     24.04%     76.43% |       40324     23.57%    100.00%
system.ruby.L1Cache_Controller.S.deallocTBE::total       171112                      
system.ruby.L1Cache_Controller.S.externalloadSrespfrom_in |     6238472     27.26%     27.26% |     4506326     19.69%     46.94% |     4598816     20.09%     67.03% |     7545528     32.97%    100.00%
system.ruby.L1Cache_Controller.S.externalloadSrespfrom_in::total     22889142                      
system.ruby.L1Cache_Controller.S_evict.Progress |           5     21.74%     21.74% |           7     30.43%     52.17% |           2      8.70%     60.87% |           9     39.13%    100.00%
system.ruby.L1Cache_Controller.S_evict.Progress::total           23                      
system.ruby.L1Cache_Controller.S_evict.Stallmandatory_in |        6657     26.64%     26.64% |        6008     24.04%     50.68% |        6050     24.21%     74.89% |        6276     25.11%    100.00%
system.ruby.L1Cache_Controller.S_evict.Stallmandatory_in::total        24991                      
system.ruby.L1Cache_Controller.S_evict_x_I.Progress |           6     13.95%     13.95% |          14     32.56%     46.51% |          11     25.58%     72.09% |          12     27.91%    100.00%
system.ruby.L1Cache_Controller.S_evict_x_I.Progress::total           43                      
system.ruby.L1Cache_Controller.S_evict_x_I.Stallmandatory_in |          28     13.21%     13.21% |          70     33.02%     46.23% |          54     25.47%     71.70% |          60     28.30%    100.00%
system.ruby.L1Cache_Controller.S_evict_x_I.Stallmandatory_in::total          212                      
system.ruby.L1Cache_Controller.S_store.Progress |     1454266     23.32%     23.32% |     1576643     25.28%     48.61% |     1496971     24.01%     72.61% |     1707872     27.39%    100.00%
system.ruby.L1Cache_Controller.S_store.Progress::total      6235752                      
system.ruby.L1Cache_Controller.S_store.Stallfwdfrom_in |           0      0.00%      0.00% |          15     23.08%     23.08% |          35     53.85%     76.92% |          15     23.08%    100.00%
system.ruby.L1Cache_Controller.S_store.Stallfwdfrom_in::total           65                      
system.ruby.L1Cache_Controller.S_store_GetM_Ack_AD.Progress |           1    100.00%    100.00% |           0      0.00%    100.00% |           0      0.00%    100.00% |           0      0.00%    100.00%
system.ruby.L1Cache_Controller.S_store_GetM_Ack_AD.Progress::total            1                      
system.ruby.L1Cache_Controller.SloadSEvent |   717830755     23.20%     23.20% |   785198971     25.38%     48.58% |   763288482     24.67%     73.25% |   827428561     26.75%    100.00%
system.ruby.L1Cache_Controller.SloadSEvent::total   3093746769                      
system.ruby.L1Cache_Controller.Stallfwdfrom_in |          83     18.91%     18.91% |          96     21.87%     40.77% |         134     30.52%     71.30% |         126     28.70%    100.00%
system.ruby.L1Cache_Controller.Stallfwdfrom_in::total          439                      
system.ruby.L1Cache_Controller.Stallmandatory_in |       22663     26.57%     26.57% |       21712     25.46%     52.03% |       20429     23.95%     75.98% |       20491     24.02%    100.00%
system.ruby.L1Cache_Controller.Stallmandatory_in::total        85295                      
system.ruby.L1Cache_Controller.allocI_load |     6238472     27.26%     27.26% |     4506326     19.69%     46.94% |     4598816     20.09%     67.03% |     7545529     32.97%    100.00%
system.ruby.L1Cache_Controller.allocI_load::total     22889143                      
system.ruby.L1Cache_Controller.allocI_store |     1667019     23.86%     23.86% |     1632676     23.37%     47.23% |     1594819     22.83%     70.05% |     2092587     29.95%    100.00%
system.ruby.L1Cache_Controller.allocI_store::total      6987101                      
system.ruby.L1Cache_Controller.allocTBE  |     9356572     25.92%     25.92% |     7718457     21.38%     47.30% |     7687524     21.29%     68.59% |    11337624     31.41%    100.00%
system.ruby.L1Cache_Controller.allocTBE::total     36100177                      
system.ruby.L1Cache_Controller.deallocTBE |       48998     28.64%     28.64% |       40655     23.76%     52.39% |       41135     24.04%     76.43% |       40324     23.57%    100.00%
system.ruby.L1Cache_Controller.deallocTBE::total       171112                      
system.ruby.L1Cache_Controller.deallocfwdfrom_in |     7904526     26.46%     26.46% |     6138038     20.55%     47.01% |     6192620     20.73%     67.74% |     9637097     32.26%    100.00%
system.ruby.L1Cache_Controller.deallocfwdfrom_in::total     29872281                      
system.ruby.L1Cache_Controller.externalloadSrespfrom_in |     6238472     27.26%     27.26% |     4506326     19.69%     46.94% |     4598816     20.09%     67.03% |     7545528     32.97%    100.00%
system.ruby.L1Cache_Controller.externalloadSrespfrom_in::total     22889142                      
system.ruby.L1Cache_Controller.externalstoreMrespfrom_in |     3070067     23.54%     23.54% |     3172440     24.32%     47.86% |     3048588     23.37%     71.23% |     3752790     28.77%    100.00%
system.ruby.L1Cache_Controller.externalstoreMrespfrom_in::total     13043885                      
system.ruby.LD.hit_latency_hist_seqr::bucket_size            1                      
system.ruby.LD.hit_latency_hist_seqr::max_bucket            9                      
system.ruby.LD.hit_latency_hist_seqr::samples    608924641                      
system.ruby.LD.hit_latency_hist_seqr     |   608924641    100.00%    100.00% |           0      0.00%    100.00% |           0      0.00%    100.00% |           0      0.00%    100.00% |           0      0.00%    100.00% |           0      0.00%    100.00% |           0      0.00%    100.00% |           0      0.00%    100.00% |           0      0.00%    100.00% |           0      0.00%    100.00%
system.ruby.LD.hit_latency_hist_seqr::total    608924641                      
system.ruby.LD.latency_hist_seqr::bucket_size            1                      
system.ruby.LD.latency_hist_seqr::max_bucket            9                      
system.ruby.LD.latency_hist_seqr::samples    621639194                      
system.ruby.LD.latency_hist_seqr         |   621639194    100.00%    100.00% |           0      0.00%    100.00% |           0      0.00%    100.00% |           0      0.00%    100.00% |           0      0.00%    100.00% |           0      0.00%    100.00% |           0      0.00%    100.00% |           0      0.00%    100.00% |           0      0.00%    100.00% |           0      0.00%    100.00%
system.ruby.LD.latency_hist_seqr::total     621639194                      
system.ruby.LD.miss_latency_hist_seqr::bucket_size            1                      
system.ruby.LD.miss_latency_hist_seqr::max_bucket            9                      
system.ruby.LD.miss_latency_hist_seqr::samples     12714553                      
system.ruby.LD.miss_latency_hist_seqr    |    12714553    100.00%    100.00% |           0      0.00%    100.00% |           0      0.00%    100.00% |           0      0.00%    100.00% |           0      0.00%    100.00% |           0      0.00%    100.00% |           0      0.00%    100.00% |           0      0.00%    100.00% |           0      0.00%    100.00% |           0      0.00%    100.00%
system.ruby.LD.miss_latency_hist_seqr::total     12714553                      
system.ruby.Locked_RMW_Read.hit_latency_hist_seqr::bucket_size            1                      
system.ruby.Locked_RMW_Read.hit_latency_hist_seqr::max_bucket            9                      
system.ruby.Locked_RMW_Read.hit_latency_hist_seqr::samples      1130135                      
system.ruby.Locked_RMW_Read.hit_latency_hist_seqr |     1130135    100.00%    100.00% |           0      0.00%    100.00% |           0      0.00%    100.00% |           0      0.00%    100.00% |           0      0.00%    100.00% |           0      0.00%    100.00% |           0      0.00%    100.00% |           0      0.00%    100.00% |           0      0.00%    100.00% |           0      0.00%    100.00%
system.ruby.Locked_RMW_Read.hit_latency_hist_seqr::total      1130135                      
system.ruby.Locked_RMW_Read.latency_hist_seqr::bucket_size            1                      
system.ruby.Locked_RMW_Read.latency_hist_seqr::max_bucket            9                      
system.ruby.Locked_RMW_Read.latency_hist_seqr::samples      1534778                      
system.ruby.Locked_RMW_Read.latency_hist_seqr |     1534778    100.00%    100.00% |           0      0.00%    100.00% |           0      0.00%    100.00% |           0      0.00%    100.00% |           0      0.00%    100.00% |           0      0.00%    100.00% |           0      0.00%    100.00% |           0      0.00%    100.00% |           0      0.00%    100.00% |           0      0.00%    100.00%
system.ruby.Locked_RMW_Read.latency_hist_seqr::total      1534778                      
system.ruby.Locked_RMW_Read.miss_latency_hist_seqr::bucket_size            1                      
system.ruby.Locked_RMW_Read.miss_latency_hist_seqr::max_bucket            9                      
system.ruby.Locked_RMW_Read.miss_latency_hist_seqr::samples       404643                      
system.ruby.Locked_RMW_Read.miss_latency_hist_seqr |      404643    100.00%    100.00% |           0      0.00%    100.00% |           0      0.00%    100.00% |           0      0.00%    100.00% |           0      0.00%    100.00% |           0      0.00%    100.00% |           0      0.00%    100.00% |           0      0.00%    100.00% |           0      0.00%    100.00% |           0      0.00%    100.00%
system.ruby.Locked_RMW_Read.miss_latency_hist_seqr::total       404643                      
system.ruby.Locked_RMW_Write.hit_latency_hist_seqr::bucket_size            1                      
system.ruby.Locked_RMW_Write.hit_latency_hist_seqr::max_bucket            9                      
system.ruby.Locked_RMW_Write.hit_latency_hist_seqr::samples      1534778                      
system.ruby.Locked_RMW_Write.hit_latency_hist_seqr |     1534778    100.00%    100.00% |           0      0.00%    100.00% |           0      0.00%    100.00% |           0      0.00%    100.00% |           0      0.00%    100.00% |           0      0.00%    100.00% |           0      0.00%    100.00% |           0      0.00%    100.00% |           0      0.00%    100.00% |           0      0.00%    100.00%
system.ruby.Locked_RMW_Write.hit_latency_hist_seqr::total      1534778                      
system.ruby.Locked_RMW_Write.latency_hist_seqr::bucket_size            1                      
system.ruby.Locked_RMW_Write.latency_hist_seqr::max_bucket            9                      
system.ruby.Locked_RMW_Write.latency_hist_seqr::samples      1534778                      
system.ruby.Locked_RMW_Write.latency_hist_seqr |     1534778    100.00%    100.00% |           0      0.00%    100.00% |           0      0.00%    100.00% |           0      0.00%    100.00% |           0      0.00%    100.00% |           0      0.00%    100.00% |           0      0.00%    100.00% |           0      0.00%    100.00% |           0      0.00%    100.00% |           0      0.00%    100.00%
system.ruby.Locked_RMW_Write.latency_hist_seqr::total      1534778                      
system.ruby.RMW_Read.hit_latency_hist_seqr::bucket_size            1                      
system.ruby.RMW_Read.hit_latency_hist_seqr::max_bucket            9                      
system.ruby.RMW_Read.hit_latency_hist_seqr::samples     16237158                      
system.ruby.RMW_Read.hit_latency_hist_seqr |    16237158    100.00%    100.00% |           0      0.00%    100.00% |           0      0.00%    100.00% |           0      0.00%    100.00% |           0      0.00%    100.00% |           0      0.00%    100.00% |           0      0.00%    100.00% |           0      0.00%    100.00% |           0      0.00%    100.00% |           0      0.00%    100.00%
system.ruby.RMW_Read.hit_latency_hist_seqr::total     16237158                      
system.ruby.RMW_Read.latency_hist_seqr::bucket_size            1                      
system.ruby.RMW_Read.latency_hist_seqr::max_bucket            9                      
system.ruby.RMW_Read.latency_hist_seqr::samples     16724457                      
system.ruby.RMW_Read.latency_hist_seqr   |    16724457    100.00%    100.00% |           0      0.00%    100.00% |           0      0.00%    100.00% |           0      0.00%    100.00% |           0      0.00%    100.00% |           0      0.00%    100.00% |           0      0.00%    100.00% |           0      0.00%    100.00% |           0      0.00%    100.00% |           0      0.00%    100.00%
system.ruby.RMW_Read.latency_hist_seqr::total     16724457                      
system.ruby.RMW_Read.miss_latency_hist_seqr::bucket_size            1                      
system.ruby.RMW_Read.miss_latency_hist_seqr::max_bucket            9                      
system.ruby.RMW_Read.miss_latency_hist_seqr::samples       487299                      
system.ruby.RMW_Read.miss_latency_hist_seqr |      487299    100.00%    100.00% |           0      0.00%    100.00% |           0      0.00%    100.00% |           0      0.00%    100.00% |           0      0.00%    100.00% |           0      0.00%    100.00% |           0      0.00%    100.00% |           0      0.00%    100.00% |           0      0.00%    100.00% |           0      0.00%    100.00%
system.ruby.RMW_Read.miss_latency_hist_seqr::total       487299                      
system.ruby.ST.hit_latency_hist_seqr::bucket_size            1                      
system.ruby.ST.hit_latency_hist_seqr::max_bucket            9                      
system.ruby.ST.hit_latency_hist_seqr::samples    323700835                      
system.ruby.ST.hit_latency_hist_seqr     |   323700835    100.00%    100.00% |           0      0.00%    100.00% |           0      0.00%    100.00% |           0      0.00%    100.00% |           0      0.00%    100.00% |           0      0.00%    100.00% |           0      0.00%    100.00% |           0      0.00%    100.00% |           0      0.00%    100.00% |           0      0.00%    100.00%
system.ruby.ST.hit_latency_hist_seqr::total    323700835                      
system.ruby.ST.latency_hist_seqr::bucket_size            1                      
system.ruby.ST.latency_hist_seqr::max_bucket            9                      
system.ruby.ST.latency_hist_seqr::samples    335852778                      
system.ruby.ST.latency_hist_seqr         |   335852778    100.00%    100.00% |           0      0.00%    100.00% |           0      0.00%    100.00% |           0      0.00%    100.00% |           0      0.00%    100.00% |           0      0.00%    100.00% |           0      0.00%    100.00% |           0      0.00%    100.00% |           0      0.00%    100.00% |           0      0.00%    100.00%
system.ruby.ST.latency_hist_seqr::total     335852778                      
system.ruby.ST.miss_latency_hist_seqr::bucket_size            1                      
system.ruby.ST.miss_latency_hist_seqr::max_bucket            9                      
system.ruby.ST.miss_latency_hist_seqr::samples     12151943                      
system.ruby.ST.miss_latency_hist_seqr    |    12151943    100.00%    100.00% |           0      0.00%    100.00% |           0      0.00%    100.00% |           0      0.00%    100.00% |           0      0.00%    100.00% |           0      0.00%    100.00% |           0      0.00%    100.00% |           0      0.00%    100.00% |           0      0.00%    100.00% |           0      0.00%    100.00%
system.ruby.ST.miss_latency_hist_seqr::total     12151943                      
system.ruby.dir_cntrl0.fwdFrom.avg_buf_msgs     0.013730                       # Average number of messages in buffer
system.ruby.dir_cntrl0.fwdFrom.avg_stall_time  2999.983803                       # Average number of cycles messages are stalled in this MB
system.ruby.dir_cntrl0.reqTo.avg_buf_msgs     0.005102                       # Average number of messages in buffer
system.ruby.dir_cntrl0.reqTo.avg_stall_time  5645.684551                       # Average number of cycles messages are stalled in this MB
system.ruby.dir_cntrl0.requestToMemory.avg_buf_msgs     0.003656                       # Average number of messages in buffer
system.ruby.dir_cntrl0.requestToMemory.avg_stall_time   500.000028                       # Average number of cycles messages are stalled in this MB
system.ruby.dir_cntrl0.respFrom.avg_buf_msgs     0.016264                       # Average number of messages in buffer
system.ruby.dir_cntrl0.respFrom.avg_stall_time  3000.038372                       # Average number of cycles messages are stalled in this MB
system.ruby.dir_cntrl0.respTo.avg_buf_msgs     0.000022                       # Average number of messages in buffer
system.ruby.dir_cntrl0.respTo.avg_stall_time  9498.492678                       # Average number of cycles messages are stalled in this MB
system.ruby.dir_cntrl0.responseFromMemory.avg_buf_msgs     0.003665                       # Average number of messages in buffer
system.ruby.dir_cntrl0.responseFromMemory.avg_stall_time   499.999974                       # Average number of cycles messages are stalled in this MB
system.ruby.dir_cntrl1.fwdFrom.avg_buf_msgs     0.013319                       # Average number of messages in buffer
system.ruby.dir_cntrl1.fwdFrom.avg_stall_time  2999.982372                       # Average number of cycles messages are stalled in this MB
system.ruby.dir_cntrl1.reqTo.avg_buf_msgs     0.004969                       # Average number of messages in buffer
system.ruby.dir_cntrl1.reqTo.avg_stall_time  5526.114288                       # Average number of cycles messages are stalled in this MB
system.ruby.dir_cntrl1.requestToMemory.avg_buf_msgs     0.003584                       # Average number of messages in buffer
system.ruby.dir_cntrl1.requestToMemory.avg_stall_time   499.999999                       # Average number of cycles messages are stalled in this MB
system.ruby.dir_cntrl1.respFrom.avg_buf_msgs     0.015767                       # Average number of messages in buffer
system.ruby.dir_cntrl1.respFrom.avg_stall_time  3000.046699                       # Average number of cycles messages are stalled in this MB
system.ruby.dir_cntrl1.respTo.avg_buf_msgs     0.000044                       # Average number of messages in buffer
system.ruby.dir_cntrl1.respTo.avg_stall_time  6795.668983                       # Average number of cycles messages are stalled in this MB
system.ruby.dir_cntrl1.responseFromMemory.avg_buf_msgs     0.003592                       # Average number of messages in buffer
system.ruby.dir_cntrl1.responseFromMemory.avg_stall_time   499.999974                       # Average number of cycles messages are stalled in this MB
system.ruby.dir_cntrl2.fwdFrom.avg_buf_msgs     0.013180                       # Average number of messages in buffer
system.ruby.dir_cntrl2.fwdFrom.avg_stall_time  2999.967294                       # Average number of cycles messages are stalled in this MB
system.ruby.dir_cntrl2.reqTo.avg_buf_msgs     0.004877                       # Average number of messages in buffer
system.ruby.dir_cntrl2.reqTo.avg_stall_time  5517.804381                       # Average number of cycles messages are stalled in this MB
system.ruby.dir_cntrl2.requestToMemory.avg_buf_msgs     0.003562                       # Average number of messages in buffer
system.ruby.dir_cntrl2.requestToMemory.avg_stall_time   499.999913                       # Average number of cycles messages are stalled in this MB
system.ruby.dir_cntrl2.respFrom.avg_buf_msgs     0.015626                       # Average number of messages in buffer
system.ruby.dir_cntrl2.respFrom.avg_stall_time  3000.150763                       # Average number of cycles messages are stalled in this MB
system.ruby.dir_cntrl2.respTo.avg_buf_msgs     0.000043                       # Average number of messages in buffer
system.ruby.dir_cntrl2.respTo.avg_stall_time  7316.333724                       # Average number of cycles messages are stalled in this MB
system.ruby.dir_cntrl2.responseFromMemory.avg_buf_msgs     0.003570                       # Average number of messages in buffer
system.ruby.dir_cntrl2.responseFromMemory.avg_stall_time   499.999880                       # Average number of cycles messages are stalled in this MB
system.ruby.dir_cntrl3.fwdFrom.avg_buf_msgs     0.012839                       # Average number of messages in buffer
system.ruby.dir_cntrl3.fwdFrom.avg_stall_time  2999.979225                       # Average number of cycles messages are stalled in this MB
system.ruby.dir_cntrl3.reqTo.avg_buf_msgs     0.004774                       # Average number of messages in buffer
system.ruby.dir_cntrl3.reqTo.avg_stall_time  5453.749748                       # Average number of cycles messages are stalled in this MB
system.ruby.dir_cntrl3.requestToMemory.avg_buf_msgs     0.003538                       # Average number of messages in buffer
system.ruby.dir_cntrl3.requestToMemory.avg_stall_time   499.999968                       # Average number of cycles messages are stalled in this MB
system.ruby.dir_cntrl3.respFrom.avg_buf_msgs     0.015458                       # Average number of messages in buffer
system.ruby.dir_cntrl3.respFrom.avg_stall_time  3000.121199                       # Average number of cycles messages are stalled in this MB
system.ruby.dir_cntrl3.respTo.avg_buf_msgs     0.000011                       # Average number of messages in buffer
system.ruby.dir_cntrl3.respTo.avg_stall_time 12050.460738                       # Average number of cycles messages are stalled in this MB
system.ruby.dir_cntrl3.responseFromMemory.avg_buf_msgs     0.003547                       # Average number of messages in buffer
system.ruby.dir_cntrl3.responseFromMemory.avg_stall_time   499.999943                       # Average number of cycles messages are stalled in this MB
system.ruby.dma_cntrl0.cache.demand_accesses            0                       # Number of cache demand accesses
system.ruby.dma_cntrl0.cache.demand_hits            0                       # Number of cache demand hits
system.ruby.dma_cntrl0.cache.demand_misses            0                       # Number of cache demand misses
system.ruby.dma_cntrl0.fully_busy_cycles          356                       # cycles for which number of transistions == max transitions
system.ruby.dma_cntrl0.fwdFrom.avg_buf_msgs     0.000000                       # Average number of messages in buffer
system.ruby.dma_cntrl0.fwdFrom.avg_stall_time  6492.433662                       # Average number of cycles messages are stalled in this MB
system.ruby.dma_cntrl0.mandatoryQueue.avg_buf_msgs     0.000007                       # Average number of messages in buffer
system.ruby.dma_cntrl0.mandatoryQueue.avg_stall_time   499.484652                       # Average number of cycles messages are stalled in this MB
system.ruby.dma_cntrl0.reqTo.avg_buf_msgs     0.000011                       # Average number of messages in buffer
system.ruby.dma_cntrl0.reqTo.avg_stall_time   499.450443                       # Average number of cycles messages are stalled in this MB
system.ruby.dma_cntrl0.respFrom.avg_buf_msgs     0.000000                       # Average number of messages in buffer
system.ruby.dma_cntrl0.respFrom.avg_stall_time 137839.737700                       # Average number of cycles messages are stalled in this MB
system.ruby.hit_latency_hist_seqr::bucket_size            1                      
system.ruby.hit_latency_hist_seqr::max_bucket            9                      
system.ruby.hit_latency_hist_seqr::samples   3874315604                      
system.ruby.hit_latency_hist_seqr        |  3874315604    100.00%    100.00% |           0      0.00%    100.00% |           0      0.00%    100.00% |           0      0.00%    100.00% |           0      0.00%    100.00% |           0      0.00%    100.00% |           0      0.00%    100.00% |           0      0.00%    100.00% |           0      0.00%    100.00% |           0      0.00%    100.00%
system.ruby.hit_latency_hist_seqr::total   3874315604                      
system.ruby.io_controller.cache.demand_accesses            0                       # Number of cache demand accesses
system.ruby.io_controller.cache.demand_hits            0                       # Number of cache demand hits
system.ruby.io_controller.cache.demand_misses            0                       # Number of cache demand misses
system.ruby.l1_cntrl0.cache.demand_accesses            0                       # Number of cache demand accesses
system.ruby.l1_cntrl0.cache.demand_hits             0                       # Number of cache demand hits
system.ruby.l1_cntrl0.cache.demand_misses            0                       # Number of cache demand misses
system.ruby.l1_cntrl0.fully_busy_cycles            36                       # cycles for which number of transistions == max transitions
system.ruby.l1_cntrl0.fwdFrom.avg_buf_msgs     6.906806                       # Average number of messages in buffer
system.ruby.l1_cntrl0.fwdFrom.avg_stall_time  6433.604257                       # Average number of cycles messages are stalled in this MB
system.ruby.l1_cntrl0.mandatoryQueue.avg_buf_msgs     0.332508                       # Average number of messages in buffer
system.ruby.l1_cntrl0.mandatoryQueue.avg_stall_time  3462.962519                       # Average number of cycles messages are stalled in this MB
system.ruby.l1_cntrl0.reqTo.avg_buf_msgs     0.005054                       # Average number of messages in buffer
system.ruby.l1_cntrl0.reqTo.avg_stall_time   500.000152                       # Average number of cycles messages are stalled in this MB
system.ruby.l1_cntrl0.respFrom.avg_buf_msgs     0.002760                       # Average number of messages in buffer
system.ruby.l1_cntrl0.respFrom.avg_stall_time 16484.541927                       # Average number of cycles messages are stalled in this MB
system.ruby.l1_cntrl0.respTo.avg_buf_msgs     0.000086                       # Average number of messages in buffer
system.ruby.l1_cntrl0.respTo.avg_stall_time   776.148716                       # Average number of cycles messages are stalled in this MB
system.ruby.l1_cntrl1.cache.demand_accesses            0                       # Number of cache demand accesses
system.ruby.l1_cntrl1.cache.demand_hits             0                       # Number of cache demand hits
system.ruby.l1_cntrl1.cache.demand_misses            0                       # Number of cache demand misses
system.ruby.l1_cntrl1.fully_busy_cycles            51                       # cycles for which number of transistions == max transitions
system.ruby.l1_cntrl1.fwdFrom.avg_buf_msgs     7.333645                       # Average number of messages in buffer
system.ruby.l1_cntrl1.fwdFrom.avg_stall_time  6542.562258                       # Average number of cycles messages are stalled in this MB
system.ruby.l1_cntrl1.mandatoryQueue.avg_buf_msgs     0.349682                       # Average number of messages in buffer
system.ruby.l1_cntrl1.mandatoryQueue.avg_stall_time  2990.813069                       # Average number of cycles messages are stalled in this MB
system.ruby.l1_cntrl1.reqTo.avg_buf_msgs     0.004052                       # Average number of messages in buffer
system.ruby.l1_cntrl1.reqTo.avg_stall_time   500.000027                       # Average number of cycles messages are stalled in this MB
system.ruby.l1_cntrl1.respFrom.avg_buf_msgs     0.002274                       # Average number of messages in buffer
system.ruby.l1_cntrl1.respFrom.avg_stall_time 16662.422925                       # Average number of cycles messages are stalled in this MB
system.ruby.l1_cntrl1.respTo.avg_buf_msgs     0.000075                       # Average number of messages in buffer
system.ruby.l1_cntrl1.respTo.avg_stall_time   707.342334                       # Average number of cycles messages are stalled in this MB
system.ruby.l1_cntrl2.cache.demand_accesses            0                       # Number of cache demand accesses
system.ruby.l1_cntrl2.cache.demand_hits             0                       # Number of cache demand hits
system.ruby.l1_cntrl2.cache.demand_misses            0                       # Number of cache demand misses
system.ruby.l1_cntrl2.fully_busy_cycles            49                       # cycles for which number of transistions == max transitions
system.ruby.l1_cntrl2.fwdFrom.avg_buf_msgs    10.908997                       # Average number of messages in buffer
system.ruby.l1_cntrl2.fwdFrom.avg_stall_time  6499.107394                       # Average number of cycles messages are stalled in this MB
system.ruby.l1_cntrl2.mandatoryQueue.avg_buf_msgs     0.339056                       # Average number of messages in buffer
system.ruby.l1_cntrl2.mandatoryQueue.avg_stall_time  2976.722788                       # Average number of cycles messages are stalled in this MB
system.ruby.l1_cntrl2.reqTo.avg_buf_msgs     0.004058                       # Average number of messages in buffer
system.ruby.l1_cntrl2.reqTo.avg_stall_time   500.000022                       # Average number of cycles messages are stalled in this MB
system.ruby.l1_cntrl2.respFrom.avg_buf_msgs     0.002267                       # Average number of messages in buffer
system.ruby.l1_cntrl2.respFrom.avg_stall_time 16317.543235                       # Average number of cycles messages are stalled in this MB
system.ruby.l1_cntrl2.respTo.avg_buf_msgs     0.000078                       # Average number of messages in buffer
system.ruby.l1_cntrl2.respTo.avg_stall_time   685.877405                       # Average number of cycles messages are stalled in this MB
system.ruby.l1_cntrl3.cache.demand_accesses            0                       # Number of cache demand accesses
system.ruby.l1_cntrl3.cache.demand_hits             0                       # Number of cache demand hits
system.ruby.l1_cntrl3.cache.demand_misses            0                       # Number of cache demand misses
system.ruby.l1_cntrl3.fully_busy_cycles            33                       # cycles for which number of transistions == max transitions
system.ruby.l1_cntrl3.fwdFrom.avg_buf_msgs     9.922360                       # Average number of messages in buffer
system.ruby.l1_cntrl3.fwdFrom.avg_stall_time  6519.679618                       # Average number of cycles messages are stalled in this MB
system.ruby.l1_cntrl3.mandatoryQueue.avg_buf_msgs     0.393275                       # Average number of messages in buffer
system.ruby.l1_cntrl3.mandatoryQueue.avg_stall_time  4269.548901                       # Average number of cycles messages are stalled in this MB
system.ruby.l1_cntrl3.reqTo.avg_buf_msgs     0.006149                       # Average number of messages in buffer
system.ruby.l1_cntrl3.reqTo.avg_stall_time   499.896993                       # Average number of cycles messages are stalled in this MB
system.ruby.l1_cntrl3.respFrom.avg_buf_msgs     0.003344                       # Average number of messages in buffer
system.ruby.l1_cntrl3.respFrom.avg_stall_time 16496.098470                       # Average number of cycles messages are stalled in this MB
system.ruby.l1_cntrl3.respTo.avg_buf_msgs     0.000080                       # Average number of messages in buffer
system.ruby.l1_cntrl3.respTo.avg_stall_time   673.419425                       # Average number of cycles messages are stalled in this MB
system.ruby.latency_hist_seqr::bucket_size            1                      
system.ruby.latency_hist_seqr::max_bucket            9                      
system.ruby.latency_hist_seqr::samples     3910248631                      
system.ruby.latency_hist_seqr            |  3910248631    100.00%    100.00% |           0      0.00%    100.00% |           0      0.00%    100.00% |           0      0.00%    100.00% |           0      0.00%    100.00% |           0      0.00%    100.00% |           0      0.00%    100.00% |           0      0.00%    100.00% |           0      0.00%    100.00% |           0      0.00%    100.00%
system.ruby.latency_hist_seqr::total       3910248631                      
system.ruby.miss_latency_hist_seqr::bucket_size            1                      
system.ruby.miss_latency_hist_seqr::max_bucket            9                      
system.ruby.miss_latency_hist_seqr::samples     35933027                      
system.ruby.miss_latency_hist_seqr       |    35933027    100.00%    100.00% |           0      0.00%    100.00% |           0      0.00%    100.00% |           0      0.00%    100.00% |           0      0.00%    100.00% |           0      0.00%    100.00% |           0      0.00%    100.00% |           0      0.00%    100.00% |           0      0.00%    100.00% |           0      0.00%    100.00%
system.ruby.miss_latency_hist_seqr::total     35933027                      
system.ruby.network.average_flit_latency    16.662119                      
system.ruby.network.average_flit_network_latency    12.477407                      
system.ruby.network.average_flit_queueing_latency     4.184712                      
system.ruby.network.average_flit_vnet_latency |   15.000148                       |    5.006301                       |   10.489919                      
system.ruby.network.average_flit_vqueue_latency |    5.937461                       |    6.000003                       |    1.000901                      
system.ruby.network.average_hops             1.001466                      
system.ruby.network.average_packet_latency    15.909526                      
system.ruby.network.average_packet_network_latency    12.419332                      
system.ruby.network.average_packet_queueing_latency     3.490193                      
system.ruby.network.average_packet_vnet_latency |   24.805653                       |    5.006301                       |    8.913504                      
system.ruby.network.average_packet_vqueue_latency |    5.892828                       |    6.000003                       |    1.000576                      
system.ruby.network.avg_link_utilization     0.289863                      
system.ruby.network.avg_vc_load          |    0.119457     41.21%     41.21% |    0.013980      4.82%     46.03% |    0.013341      4.60%     50.64% |    0.013332      4.60%     55.24% |    0.019908      6.87%     62.10% |    0.002226      0.77%     62.87% |    0.002213      0.76%     63.64% |    0.002213      0.76%     64.40% |    0.076231     26.30%     90.70% |    0.009752      3.36%     94.06% |    0.008607      2.97%     97.03% |    0.008604      2.97%    100.00%
system.ruby.network.avg_vc_load::total       0.289863                      
system.ruby.network.ext_in_link_utilization    327743715                      
system.ruby.network.ext_out_link_utilization    327743714                      
system.ruby.network.flit_network_latency |  2714310337                       |   150408741                       |  1224672731                      
system.ruby.network.flit_queueing_latency |  1074396878                       |   180263392                       |   116852762                      
system.ruby.network.flits_injected       |   180952248     55.21%     55.21% |    30043884      9.17%     64.38% |   116747587     35.62%    100.00%
system.ruby.network.flits_injected::total    327743719                      
system.ruby.network.flits_received       |   180952243     55.21%     55.21% |    30043884      9.17%     64.38% |   116747587     35.62%    100.00%
system.ruby.network.flits_received::total    327743714                      
system.ruby.network.int_link_utilization    328224052                      
system.ruby.network.packet_network_latency |   906206557                       |   150408741                       |   584221762                      
system.ruby.network.packet_queueing_latency |   215278330                       |   180263392                       |    65581190                      
system.ruby.network.packets_injected     |    36532260     27.65%     27.65% |    30043884     22.74%     50.39% |    65543443     49.61%    100.00%
system.ruby.network.packets_injected::total    132119587                      
system.ruby.network.packets_received     |    36532259     27.65%     27.65% |    30043884     22.74%     50.39% |    65543443     49.61%    100.00%
system.ruby.network.packets_received::total    132119586                      
system.ruby.network.routers0.buffer_reads    163925622                      
system.ruby.network.routers0.buffer_writes    163925622                      
system.ruby.network.routers0.crossbar_activity    163925622                      
system.ruby.network.routers0.sw_input_arbiter_activity    164216005                      
system.ruby.network.routers0.sw_output_arbiter_activity    163925622                      
system.ruby.network.routers1.buffer_reads    159801030                      
system.ruby.network.routers1.buffer_writes    159801030                      
system.ruby.network.routers1.crossbar_activity    159801030                      
system.ruby.network.routers1.sw_input_arbiter_activity    160081140                      
system.ruby.network.routers1.sw_output_arbiter_activity    159801030                      
system.ruby.network.routers2.buffer_reads    156776141                      
system.ruby.network.routers2.buffer_writes    156776141                      
system.ruby.network.routers2.crossbar_activity    156776141                      
system.ruby.network.routers2.sw_input_arbiter_activity    157050606                      
system.ruby.network.routers2.sw_output_arbiter_activity    156776141                      
system.ruby.network.routers3.buffer_reads    175464973                      
system.ruby.network.routers3.buffer_writes    175464973                      
system.ruby.network.routers3.crossbar_activity    175464973                      
system.ruby.network.routers3.sw_input_arbiter_activity    175731345                      
system.ruby.network.routers3.sw_output_arbiter_activity    175464973                      
system.ruby.outstanding_req_hist_seqr::bucket_size            1                      
system.ruby.outstanding_req_hist_seqr::max_bucket            9                      
system.ruby.outstanding_req_hist_seqr::samples   3910248632                      
system.ruby.outstanding_req_hist_seqr::mean     1.000146                      
system.ruby.outstanding_req_hist_seqr::gmean     1.000101                      
system.ruby.outstanding_req_hist_seqr::stdev     0.012076                      
system.ruby.outstanding_req_hist_seqr    |           0      0.00%      0.00% |  3909678356     99.99%     99.99% |      570276      0.01%    100.00% |           0      0.00%    100.00% |           0      0.00%    100.00% |           0      0.00%    100.00% |           0      0.00%    100.00% |           0      0.00%    100.00% |           0      0.00%    100.00% |           0      0.00%    100.00%
system.ruby.outstanding_req_hist_seqr::total   3910248632                      
system.switch_cpus0.Branches                 74660867                       # Number of branches fetched
system.switch_cpus0.committedInsts          491211733                       # Number of instructions committed
system.switch_cpus0.committedOps            815150595                       # Number of ops (including micro ops) committed
system.switch_cpus0.dtb.rdAccesses          148986509                       # TLB accesses on read requests
system.switch_cpus0.dtb.rdMisses               579243                       # TLB misses on read requests
system.switch_cpus0.dtb.wrAccesses           77937412                       # TLB accesses on write requests
system.switch_cpus0.dtb.wrMisses               136223                       # TLB misses on write requests
system.switch_cpus0.idle_fraction            0.166393                       # Percentage of idle cycles
system.switch_cpus0.itb.rdAccesses                  0                       # TLB accesses on read requests
system.switch_cpus0.itb.rdMisses                    0                       # TLB misses on read requests
system.switch_cpus0.itb.wrAccesses          672291736                       # TLB accesses on write requests
system.switch_cpus0.itb.wrMisses               105924                       # TLB misses on write requests
system.switch_cpus0.kern.inst.arm                   0                       # number of arm instructions executed
system.switch_cpus0.kern.inst.quiesce               0                       # number of quiesce instructions executed
system.switch_cpus0.not_idle_fraction        0.833607                       # Percentage of non-idle cycles
system.switch_cpus0.numCycles              3392216898                       # number of cpu cycles simulated
system.switch_cpus0.numWorkItemsCompleted            0                       # number of work items this cpu completed
system.switch_cpus0.numWorkItemsStarted             0                       # number of work items this cpu started
system.switch_cpus0.num_busy_cycles      2827775719.144762                       # Number of busy cycles
system.switch_cpus0.num_cc_register_reads    420657251                       # number of times the CC registers were read
system.switch_cpus0.num_cc_register_writes    309843782                       # number of times the CC registers were written
system.switch_cpus0.num_conditional_control_insts     59901842                       # number of instructions that are conditional controls
system.switch_cpus0.num_fp_alu_accesses       7456341                       # Number of float alu accesses
system.switch_cpus0.num_fp_insts              7456341                       # number of float instructions
system.switch_cpus0.num_fp_register_reads      6762836                       # number of times the floating registers were read
system.switch_cpus0.num_fp_register_writes      1551690                       # number of times the floating registers were written
system.switch_cpus0.num_func_calls            9259246                       # number of times a function call or return occured
system.switch_cpus0.num_idle_cycles      564441178.855238                       # Number of idle cycles
system.switch_cpus0.num_int_alu_accesses    807127562                       # Number of integer alu accesses
system.switch_cpus0.num_int_insts           807127562                       # number of integer instructions
system.switch_cpus0.num_int_register_reads   1759505726                       # number of times the integer registers were read
system.switch_cpus0.num_int_register_writes    658794356                       # number of times the integer registers were written
system.switch_cpus0.num_load_insts          148271891                       # Number of load instructions
system.switch_cpus0.num_mem_refs            226085868                       # number of memory refs
system.switch_cpus0.num_store_insts          77813977                       # Number of store instructions
system.switch_cpus0.num_vec_alu_accesses            0                       # Number of vector alu accesses
system.switch_cpus0.num_vec_insts                   0                       # number of vector instructions
system.switch_cpus0.num_vec_register_reads            0                       # number of times the vector registers were read
system.switch_cpus0.num_vec_register_writes            0                       # number of times the vector registers were written
system.switch_cpus0.op_class::No_OpClass      5313564      0.65%      0.65% # Class of executed instruction
system.switch_cpus0.op_class::IntAlu        582682806     71.46%     72.11% # Class of executed instruction
system.switch_cpus0.op_class::IntMult          557239      0.07%     72.18% # Class of executed instruction
system.switch_cpus0.op_class::IntDiv           359692      0.04%     72.22% # Class of executed instruction
system.switch_cpus0.op_class::FloatAdd         141006      0.02%     72.24% # Class of executed instruction
system.switch_cpus0.op_class::FloatCmp              0      0.00%     72.24% # Class of executed instruction
system.switch_cpus0.op_class::FloatCvt           8032      0.00%     72.24% # Class of executed instruction
system.switch_cpus0.op_class::FloatMult             0      0.00%     72.24% # Class of executed instruction
system.switch_cpus0.op_class::FloatMultAcc            0      0.00%     72.24% # Class of executed instruction
system.switch_cpus0.op_class::FloatDiv              0      0.00%     72.24% # Class of executed instruction
system.switch_cpus0.op_class::FloatMisc             0      0.00%     72.24% # Class of executed instruction
system.switch_cpus0.op_class::FloatSqrt             0      0.00%     72.24% # Class of executed instruction
system.switch_cpus0.op_class::SimdAdd          275242      0.03%     72.27% # Class of executed instruction
system.switch_cpus0.op_class::SimdAddAcc            0      0.00%     72.27% # Class of executed instruction
system.switch_cpus0.op_class::SimdAlu            6214      0.00%     72.27% # Class of executed instruction
system.switch_cpus0.op_class::SimdCmp               0      0.00%     72.27% # Class of executed instruction
system.switch_cpus0.op_class::SimdCvt             384      0.00%     72.27% # Class of executed instruction
system.switch_cpus0.op_class::SimdMisc           5035      0.00%     72.27% # Class of executed instruction
system.switch_cpus0.op_class::SimdMult              0      0.00%     72.27% # Class of executed instruction
system.switch_cpus0.op_class::SimdMultAcc            0      0.00%     72.27% # Class of executed instruction
system.switch_cpus0.op_class::SimdShift          1116      0.00%     72.27% # Class of executed instruction
system.switch_cpus0.op_class::SimdShiftAcc            0      0.00%     72.27% # Class of executed instruction
system.switch_cpus0.op_class::SimdDiv               0      0.00%     72.27% # Class of executed instruction
system.switch_cpus0.op_class::SimdSqrt              0      0.00%     72.27% # Class of executed instruction
system.switch_cpus0.op_class::SimdFloatAdd            0      0.00%     72.27% # Class of executed instruction
system.switch_cpus0.op_class::SimdFloatAlu            0      0.00%     72.27% # Class of executed instruction
system.switch_cpus0.op_class::SimdFloatCmp            0      0.00%     72.27% # Class of executed instruction
system.switch_cpus0.op_class::SimdFloatCvt            0      0.00%     72.27% # Class of executed instruction
system.switch_cpus0.op_class::SimdFloatDiv            0      0.00%     72.27% # Class of executed instruction
system.switch_cpus0.op_class::SimdFloatMisc            0      0.00%     72.27% # Class of executed instruction
system.switch_cpus0.op_class::SimdFloatMult            0      0.00%     72.27% # Class of executed instruction
system.switch_cpus0.op_class::SimdFloatMultAcc            0      0.00%     72.27% # Class of executed instruction
system.switch_cpus0.op_class::SimdFloatSqrt            0      0.00%     72.27% # Class of executed instruction
system.switch_cpus0.op_class::SimdReduceAdd            0      0.00%     72.27% # Class of executed instruction
system.switch_cpus0.op_class::SimdReduceAlu            0      0.00%     72.27% # Class of executed instruction
system.switch_cpus0.op_class::SimdReduceCmp            0      0.00%     72.27% # Class of executed instruction
system.switch_cpus0.op_class::SimdFloatReduceAdd            0      0.00%     72.27% # Class of executed instruction
system.switch_cpus0.op_class::SimdFloatReduceCmp            0      0.00%     72.27% # Class of executed instruction
system.switch_cpus0.op_class::SimdAes               0      0.00%     72.27% # Class of executed instruction
system.switch_cpus0.op_class::SimdAesMix            0      0.00%     72.27% # Class of executed instruction
system.switch_cpus0.op_class::SimdSha1Hash            0      0.00%     72.27% # Class of executed instruction
system.switch_cpus0.op_class::SimdSha1Hash2            0      0.00%     72.27% # Class of executed instruction
system.switch_cpus0.op_class::SimdSha256Hash            0      0.00%     72.27% # Class of executed instruction
system.switch_cpus0.op_class::SimdSha256Hash2            0      0.00%     72.27% # Class of executed instruction
system.switch_cpus0.op_class::SimdShaSigma2            0      0.00%     72.27% # Class of executed instruction
system.switch_cpus0.op_class::SimdShaSigma3            0      0.00%     72.27% # Class of executed instruction
system.switch_cpus0.op_class::SimdPredAlu            0      0.00%     72.27% # Class of executed instruction
system.switch_cpus0.op_class::MemRead       147152793     18.05%     90.32% # Class of executed instruction
system.switch_cpus0.op_class::MemWrite       71917358      8.82%     99.14% # Class of executed instruction
system.switch_cpus0.op_class::FloatMemRead      1119098      0.14%     99.28% # Class of executed instruction
system.switch_cpus0.op_class::FloatMemWrite      5896619      0.72%    100.00% # Class of executed instruction
system.switch_cpus0.op_class::IprAccess             0      0.00%    100.00% # Class of executed instruction
[...]
system.mem_ctrls1.llc.tags.avg_refs               nan                       # Average number of references to valid blocks.
system.mem_ctrls1.llc.tags.warmup_cycle  101611210031500                       # Cycle when the warmup percentage was hit.
system.mem_ctrls1.llc.tags.occ_blocks::.ruby.dir_cntrl1 118095.300012                       # Average occupied blocks per requestor
system.mem_ctrls1.llc.tags.occ_percent::.ruby.dir_cntrl1     0.450498                       # Average percentage of cache occupancy
system.mem_ctrls1.llc.tags.occ_percent::total     0.450498                       # Average percentage of cache occupancy
system.mem_ctrls1.llc.tags.occ_task_id_blocks::1024       150790                       # Occupied blocks per task id
system.mem_ctrls1.llc.tags.age_task_id_blocks_1024::0            3                       # Occupied blocks per task id
system.mem_ctrls1.llc.tags.age_task_id_blocks_1024::1            4                       # Occupied blocks per task id
system.mem_ctrls1.llc.tags.age_task_id_blocks_1024::2            3                       # Occupied blocks per task id
system.mem_ctrls1.llc.tags.age_task_id_blocks_1024::4       150780                       # Occupied blocks per task id
system.mem_ctrls1.llc.tags.occ_task_id_percent::1024     0.575218                       # Percentage of cache occupancy per task id
system.mem_ctrls1.llc.tags.tag_accesses     194739126                       # Number of tag accesses
system.mem_ctrls1.llc.tags.data_accesses     12161771                       # Number of data accesses
system.mem_ctrls1.llc.tags.power_state.pwrStateResidencyTicks::UNDEFINED 103308064514001                       # Cumulative time (in ticks) in various power states
system.mem_ctrls1.rank1.actEnergy            85023120                       # Energy for activate commands per rank (pJ)
system.mem_ctrls1.rank1.preEnergy            45190860                       # Energy for precharge commands per rank (pJ)
system.mem_ctrls1.rank1.readEnergy          534314760                       # Energy for read commands per rank (pJ)
system.mem_ctrls1.rank1.writeEnergy                 0                       # Energy for write commands per rank (pJ)
system.mem_ctrls1.rank1.refreshEnergy    133947880560.000015                       # Energy for refresh commands per rank (pJ)
system.mem_ctrls1.rank1.actBackEnergy     51353128560                       # Energy for active background per rank (pJ)
system.mem_ctrls1.rank1.preBackEnergy    608347114560                       # Energy for precharge background per rank (pJ)
system.mem_ctrls1.rank1.actPowerDownEnergy            0                       # Energy for active power-down per rank (pJ)
system.mem_ctrls1.rank1.prePowerDownEnergy            0                       # Energy for precharge power-down per rank (pJ)
system.mem_ctrls1.rank1.selfRefreshEnergy            0                       # Energy for self refresh per rank (pJ)
system.mem_ctrls1.rank1.totalEnergy      794312652420                       # Total energy per rank (pJ)
system.mem_ctrls1.rank1.averagePower       468.108862                       # Core power per rank (mW)
system.mem_ctrls1.rank1.totalIdleTime               0                       # Total Idle time Per DRAM Rank
system.mem_ctrls1.rank1.memoryStateTime::IDLE 1581097318252                       # Time in different power states
system.mem_ctrls1.rank1.memoryStateTime::REF  56661540000                       # Time in different power states
system.mem_ctrls1.rank1.memoryStateTime::SREF            0                       # Time in different power states
system.mem_ctrls1.rank1.memoryStateTime::PRE_PDN            0                       # Time in different power states
system.mem_ctrls1.rank1.memoryStateTime::ACT  59095692249                       # Time in different power states
system.mem_ctrls1.rank1.memoryStateTime::ACT_PDN            0                       # Time in different power states
system.mem_ctrls1.rank0.actEnergy            89671260                       # Energy for activate commands per rank (pJ)
system.mem_ctrls1.rank0.preEnergy            47653815                       # Energy for precharge commands per rank (pJ)
system.mem_ctrls1.rank0.readEnergy          542325840                       # Energy for read commands per rank (pJ)
system.mem_ctrls1.rank0.writeEnergy                 0                       # Energy for write commands per rank (pJ)
system.mem_ctrls1.rank0.refreshEnergy    133947880560.000015                       # Energy for refresh commands per rank (pJ)
system.mem_ctrls1.rank0.actBackEnergy     51951207900                       # Energy for active background per rank (pJ)
system.mem_ctrls1.rank0.preBackEnergy    607843755840                       # Energy for precharge background per rank (pJ)
system.mem_ctrls1.rank0.actPowerDownEnergy            0                       # Energy for active power-down per rank (pJ)
system.mem_ctrls1.rank0.prePowerDownEnergy            0                       # Energy for precharge power-down per rank (pJ)
system.mem_ctrls1.rank0.selfRefreshEnergy            0                       # Energy for self refresh per rank (pJ)
system.mem_ctrls1.rank0.totalEnergy      794422495215                       # Total energy per rank (pJ)
system.mem_ctrls1.rank0.averagePower       468.173595                       # Core power per rank (mW)
system.mem_ctrls1.rank0.totalIdleTime               0                       # Total Idle time Per DRAM Rank
system.mem_ctrls1.rank0.memoryStateTime::IDLE 1579780329500                       # Time in different power states
system.mem_ctrls1.rank0.memoryStateTime::REF  56661540000                       # Time in different power states
system.mem_ctrls1.rank0.memoryStateTime::SREF            0                       # Time in different power states
system.mem_ctrls1.rank0.memoryStateTime::PRE_PDN            0                       # Time in different power states
system.mem_ctrls1.rank0.memoryStateTime::ACT  60412681001                       # Time in different power states
system.mem_ctrls1.rank0.memoryStateTime::ACT_PDN            0                       # Time in different power states
system.mem_ctrls1.power_state.pwrStateResidencyTicks::UNDEFINED 103308064514001                       # Cumulative time (in ticks) in various power states
system.cpu_voltage_domain.voltage                   1                       # Voltage in Volts
system.iobus.trans_dist::ReadReq                 7823                       # Transaction distribution
system.iobus.trans_dist::ReadResp                7823                       # Transaction distribution
system.iobus.trans_dist::WriteReq               59793                       # Transaction distribution
system.iobus.trans_dist::WriteResp              59793                       # Transaction distribution
system.iobus.pkt_count_system.pc.south_bridge.io_apic.int_master::system.ruby.l1_cntrl1.sequencer.pio-slave-port           48                       # Packet count per connected master and slave (bytes)
system.iobus.pkt_count_system.pc.south_bridge.io_apic.int_master::total           48                       # Packet count per connected master and slave (bytes)
system.iobus.pkt_count_system.ruby.l1_cntrl0.sequencer.mem-master-port::system.pc.south_bridge.ide.pio           34                       # Packet count per connected master and slave (bytes)
system.iobus.pkt_count_system.ruby.l1_cntrl0.sequencer.mem-master-port::system.pc.com_1.pio            2                       # Packet count per connected master and slave (bytes)
system.iobus.pkt_count_system.ruby.l1_cntrl0.sequencer.mem-master-port::system.ruby.l1_cntrl0.sequencer.pio-slave-port        22642                       # Packet count per connected master and slave (bytes)
system.iobus.pkt_count_system.ruby.l1_cntrl0.sequencer.mem-master-port::system.ruby.l1_cntrl1.sequencer.pio-slave-port         3614                       # Packet count per connected master and slave (bytes)
system.iobus.pkt_count_system.ruby.l1_cntrl0.sequencer.mem-master-port::system.ruby.l1_cntrl2.sequencer.pio-slave-port         3556                       # Packet count per connected master and slave (bytes)
system.iobus.pkt_count_system.ruby.l1_cntrl0.sequencer.mem-master-port::system.ruby.l1_cntrl3.sequencer.pio-slave-port         3650                       # Packet count per connected master and slave (bytes)
system.iobus.pkt_count_system.ruby.l1_cntrl0.sequencer.mem-master-port::total        33498                       # Packet count per connected master and slave (bytes)
system.iobus.pkt_count_system.ruby.l1_cntrl1.sequencer.mem-master-port::system.pc.south_bridge.ide.pio           12                       # Packet count per connected master and slave (bytes)
system.iobus.pkt_count_system.ruby.l1_cntrl1.sequencer.mem-master-port::system.pc.com_1.pio          182                       # Packet count per connected master and slave (bytes)
system.iobus.pkt_count_system.ruby.l1_cntrl1.sequencer.mem-master-port::system.ruby.l1_cntrl0.sequencer.pio-slave-port         3464                       # Packet count per connected master and slave (bytes)
system.iobus.pkt_count_system.ruby.l1_cntrl1.sequencer.mem-master-port::system.ruby.l1_cntrl1.sequencer.pio-slave-port        22006                       # Packet count per connected master and slave (bytes)
system.iobus.pkt_count_system.ruby.l1_cntrl1.sequencer.mem-master-port::system.ruby.l1_cntrl2.sequencer.pio-slave-port         3408                       # Packet count per connected master and slave (bytes)
system.iobus.pkt_count_system.ruby.l1_cntrl1.sequencer.mem-master-port::system.ruby.l1_cntrl3.sequencer.pio-slave-port         3428                       # Packet count per connected master and slave (bytes)
system.iobus.pkt_count_system.ruby.l1_cntrl1.sequencer.mem-master-port::total        32500                       # Packet count per connected master and slave (bytes)
system.iobus.pkt_count_system.ruby.l1_cntrl2.sequencer.mem-master-port::system.ruby.l1_cntrl0.sequencer.pio-slave-port         3938                       # Packet count per connected master and slave (bytes)
system.iobus.pkt_count_system.ruby.l1_cntrl2.sequencer.mem-master-port::system.ruby.l1_cntrl1.sequencer.pio-slave-port         3826                       # Packet count per connected master and slave (bytes)
system.iobus.pkt_count_system.ruby.l1_cntrl2.sequencer.mem-master-port::system.ruby.l1_cntrl2.sequencer.pio-slave-port        22736                       # Packet count per connected master and slave (bytes)
system.iobus.pkt_count_system.ruby.l1_cntrl2.sequencer.mem-master-port::system.ruby.l1_cntrl3.sequencer.pio-slave-port         3846                       # Packet count per connected master and slave (bytes)
system.iobus.pkt_count_system.ruby.l1_cntrl2.sequencer.mem-master-port::total        34346                       # Packet count per connected master and slave (bytes)
system.iobus.pkt_count_system.ruby.l1_cntrl3.sequencer.mem-master-port::system.ruby.l1_cntrl0.sequencer.pio-slave-port         4062                       # Packet count per connected master and slave (bytes)
system.iobus.pkt_count_system.ruby.l1_cntrl3.sequencer.mem-master-port::system.ruby.l1_cntrl1.sequencer.pio-slave-port         3930                       # Packet count per connected master and slave (bytes)
system.iobus.pkt_count_system.ruby.l1_cntrl3.sequencer.mem-master-port::system.ruby.l1_cntrl2.sequencer.pio-slave-port         3946                       # Packet count per connected master and slave (bytes)
system.iobus.pkt_count_system.ruby.l1_cntrl3.sequencer.mem-master-port::system.ruby.l1_cntrl3.sequencer.pio-slave-port        22902                       # Packet count per connected master and slave (bytes)
system.iobus.pkt_count_system.ruby.l1_cntrl3.sequencer.mem-master-port::total        34840                       # Packet count per connected master and slave (bytes)
system.iobus.pkt_count::total                  135232                       # Packet count per connected master and slave (bytes)
system.iobus.pkt_size_system.pc.south_bridge.io_apic.int_master::system.ruby.l1_cntrl1.sequencer.pio-slave-port           96                       # Cumulative packet size per connected master and slave (bytes)
system.iobus.pkt_size_system.pc.south_bridge.io_apic.int_master::total           96                       # Cumulative packet size per connected master and slave (bytes)
system.iobus.pkt_size_system.ruby.l1_cntrl0.sequencer.mem-master-port::system.pc.south_bridge.ide.pio           20                       # Cumulative packet size per connected master and slave (bytes)
system.iobus.pkt_size_system.ruby.l1_cntrl0.sequencer.mem-master-port::system.pc.com_1.pio            1                       # Cumulative packet size per connected master and slave (bytes)
system.iobus.pkt_size_system.ruby.l1_cntrl0.sequencer.mem-master-port::system.ruby.l1_cntrl0.sequencer.pio-slave-port        45284                       # Cumulative packet size per connected master and slave (bytes)
system.iobus.pkt_size_system.ruby.l1_cntrl0.sequencer.mem-master-port::system.ruby.l1_cntrl1.sequencer.pio-slave-port         7228                       # Cumulative packet size per connected master and slave (bytes)
system.iobus.pkt_size_system.ruby.l1_cntrl0.sequencer.mem-master-port::system.ruby.l1_cntrl2.sequencer.pio-slave-port         7112                       # Cumulative packet size per connected master and slave (bytes)
system.iobus.pkt_size_system.ruby.l1_cntrl0.sequencer.mem-master-port::system.ruby.l1_cntrl3.sequencer.pio-slave-port         7300                       # Cumulative packet size per connected master and slave (bytes)
system.iobus.pkt_size_system.ruby.l1_cntrl0.sequencer.mem-master-port::total        66945                       # Cumulative packet size per connected master and slave (bytes)
system.iobus.pkt_size_system.ruby.l1_cntrl1.sequencer.mem-master-port::system.pc.south_bridge.ide.pio            6                       # Cumulative packet size per connected master and slave (bytes)
system.iobus.pkt_size_system.ruby.l1_cntrl1.sequencer.mem-master-port::system.pc.com_1.pio           91                       # Cumulative packet size per connected master and slave (bytes)
system.iobus.pkt_size_system.ruby.l1_cntrl1.sequencer.mem-master-port::system.ruby.l1_cntrl0.sequencer.pio-slave-port         6928                       # Cumulative packet size per connected master and slave (bytes)
system.iobus.pkt_size_system.ruby.l1_cntrl1.sequencer.mem-master-port::system.ruby.l1_cntrl1.sequencer.pio-slave-port        44012                       # Cumulative packet size per connected master and slave (bytes)
system.iobus.pkt_size_system.ruby.l1_cntrl1.sequencer.mem-master-port::system.ruby.l1_cntrl2.sequencer.pio-slave-port         6816                       # Cumulative packet size per connected master and slave (bytes)
system.iobus.pkt_size_system.ruby.l1_cntrl1.sequencer.mem-master-port::system.ruby.l1_cntrl3.sequencer.pio-slave-port         6856                       # Cumulative packet size per connected master and slave (bytes)
system.iobus.pkt_size_system.ruby.l1_cntrl1.sequencer.mem-master-port::total        64709                       # Cumulative packet size per connected master and slave (bytes)
system.iobus.pkt_size_system.ruby.l1_cntrl2.sequencer.mem-master-port::system.ruby.l1_cntrl0.sequencer.pio-slave-port         7876                       # Cumulative packet size per connected master and slave (bytes)
system.iobus.pkt_size_system.ruby.l1_cntrl2.sequencer.mem-master-port::system.ruby.l1_cntrl1.sequencer.pio-slave-port         7652                       # Cumulative packet size per connected master and slave (bytes)
system.iobus.pkt_size_system.ruby.l1_cntrl2.sequencer.mem-master-port::system.ruby.l1_cntrl2.sequencer.pio-slave-port        45472                       # Cumulative packet size per connected master and slave (bytes)
system.iobus.pkt_size_system.ruby.l1_cntrl2.sequencer.mem-master-port::system.ruby.l1_cntrl3.sequencer.pio-slave-port         7692                       # Cumulative packet size per connected master and slave (bytes)
system.iobus.pkt_size_system.ruby.l1_cntrl2.sequencer.mem-master-port::total        68692                       # Cumulative packet size per connected master and slave (bytes)
system.iobus.pkt_size_system.ruby.l1_cntrl3.sequencer.mem-master-port::system.ruby.l1_cntrl0.sequencer.pio-slave-port         8124                       # Cumulative packet size per connected master and slave (bytes)
system.iobus.pkt_size_system.ruby.l1_cntrl3.sequencer.mem-master-port::system.ruby.l1_cntrl1.sequencer.pio-slave-port         7860                       # Cumulative packet size per connected master and slave (bytes)
system.iobus.pkt_size_system.ruby.l1_cntrl3.sequencer.mem-master-port::system.ruby.l1_cntrl2.sequencer.pio-slave-port         7892                       # Cumulative packet size per connected master and slave (bytes)
system.iobus.pkt_size_system.ruby.l1_cntrl3.sequencer.mem-master-port::system.ruby.l1_cntrl3.sequencer.pio-slave-port        45804                       # Cumulative packet size per connected master and slave (bytes)
system.iobus.pkt_size_system.ruby.l1_cntrl3.sequencer.mem-master-port::total        69680                       # Cumulative packet size per connected master and slave (bytes)
system.iobus.pkt_size::total                   270122                       # Cumulative packet size per connected master and slave (bytes)
system.iobus.reqLayer2.occupancy                38500                       # Layer occupancy (ticks)
system.iobus.reqLayer2.utilization                0.0                       # Layer utilization (%)
system.iobus.power_state.pwrStateResidencyTicks::UNDEFINED 103308064514001                       # Cumulative time (in ticks) in various power states
system.iobus.reqLayer19.occupancy            38814695                       # Layer occupancy (ticks)
system.iobus.reqLayer19.utilization               0.0                       # Layer utilization (%)
system.iobus.reqLayer17.occupancy            39423047                       # Layer occupancy (ticks)
system.iobus.reqLayer17.utilization               0.0                       # Layer utilization (%)
system.iobus.reqLayer12.occupancy              116000                       # Layer occupancy (ticks)
system.iobus.reqLayer12.utilization               0.0                       # Layer utilization (%)
system.iobus.reqLayer18.occupancy            38891183                       # Layer occupancy (ticks)
system.iobus.reqLayer18.utilization               0.0                       # Layer utilization (%)
system.iobus.respLayer9.occupancy            24274000                       # Layer occupancy (ticks)
system.iobus.respLayer9.utilization               0.0                       # Layer utilization (%)
system.iobus.respLayer5.occupancy            22767500                       # Layer occupancy (ticks)
system.iobus.respLayer5.utilization               0.0                       # Layer utilization (%)
system.iobus.respLayer7.occupancy            23970500                       # Layer occupancy (ticks)
system.iobus.respLayer7.utilization               0.0                       # Layer utilization (%)
system.iobus.respLayer0.occupancy               36499                       # Layer occupancy (ticks)
system.iobus.respLayer0.utilization               0.0                       # Layer utilization (%)
system.iobus.respLayer3.occupancy            23442000                       # Layer occupancy (ticks)
system.iobus.respLayer3.utilization               0.0                       # Layer utilization (%)
system.iobus.reqLayer20.occupancy            39112001                       # Layer occupancy (ticks)
system.iobus.reqLayer20.utilization               0.0                       # Layer utilization (%)

---------- End Simulation Statistics   ----------
