
---------- Begin Simulation Statistics ----------
final_tick                               99523737370001                       # Number of ticks from beginning of simulation (restored from checkpoints and never reset)
host_inst_rate                                 880171                       # Simulator instruction rate (inst/s)
host_mem_usage                                1616884                       # Number of bytes of host memory used
host_op_rate                                  1039813                       # Simulator op (including micro ops) rate (op/s)
host_seconds                                  7366.87                       # Real time elapsed on the host
host_tick_rate                               94228594                       # Simulator tick rate (ticks/s)
sim_freq                                 1000000000000                       # Frequency of simulated ticks
sim_insts                                  6484107532                       # Number of instructions simulated
sim_ops                                    7660165548                       # Number of ops (including micro ops) simulated
sim_seconds                                  0.694170                       # Number of seconds simulated
sim_ticks                                694169676001                       # Number of ticks simulated
system.cpu0.committedInsts                          0                       # Number of instructions committed
system.cpu0.dtb.rdAccesses                          0                       # TLB accesses on read requests
system.cpu0.dtb.rdMisses                            0                       # TLB misses on read requests
system.cpu0.dtb.wrAccesses                          0                       # TLB accesses on write requests
system.cpu0.dtb.wrMisses                            0                       # TLB misses on write requests
system.cpu0.itb.rdAccesses                          0                       # TLB accesses on read requests
system.cpu0.itb.rdMisses                            0                       # TLB misses on read requests
system.cpu0.itb.wrAccesses                          0                       # TLB accesses on write requests
system.cpu0.itb.wrMisses                            0                       # TLB misses on write requests
system.cpu0.kern.inst.arm                           0                       # number of arm instructions executed
system.cpu0.kern.inst.quiesce                       0                       # number of quiesce instructions executed
system.cpu0.numCoalescedMMIO                        0                       # number of coalesced memory mapped IO requests
system.cpu0.numCycles                               0                       # number of cpu cycles simulated
system.cpu0.numExitSignal                           0                       # exits due to signal delivery
system.cpu0.numHalt                                 0                       # number of VM exits due to wait for interrupt instructions
system.cpu0.numHypercalls                           0                       # number of hypercalls
system.cpu0.numIO                                   0                       # number of VM exits due to legacy IO
system.cpu0.numInterrupts                           0                       # number of interrupts delivered
system.cpu0.numMMIO                                 0                       # number of VM exits due to memory mapped IO
system.cpu0.numVMExits                              0                       # total number of KVM exits
system.cpu0.numVMHalfEntries                        0                       # number of KVM entries to finalize pending operations
system.cpu0.numWorkItemsCompleted                   0                       # number of work items this cpu completed
system.cpu0.numWorkItemsStarted                     0                       # number of work items this cpu started
system.cpu1.committedInsts                          0                       # Number of instructions committed
system.cpu1.dtb.rdAccesses                          0                       # TLB accesses on read requests
system.cpu1.dtb.rdMisses                            0                       # TLB misses on read requests
system.cpu1.dtb.wrAccesses                          0                       # TLB accesses on write requests
system.cpu1.dtb.wrMisses                            0                       # TLB misses on write requests
system.cpu1.itb.rdAccesses                          0                       # TLB accesses on read requests
system.cpu1.itb.rdMisses                            0                       # TLB misses on read requests
system.cpu1.itb.wrAccesses                          0                       # TLB accesses on write requests
system.cpu1.itb.wrMisses                            0                       # TLB misses on write requests
system.cpu1.kern.inst.arm                           0                       # number of arm instructions executed
system.cpu1.kern.inst.quiesce                       0                       # number of quiesce instructions executed
system.cpu1.numCoalescedMMIO                        0                       # number of coalesced memory mapped IO requests
system.cpu1.numCycles                               0                       # number of cpu cycles simulated
system.cpu1.numExitSignal                           0                       # exits due to signal delivery
system.cpu1.numHalt                                 0                       # number of VM exits due to wait for interrupt instructions
system.cpu1.numHypercalls                           0                       # number of hypercalls
system.cpu1.numIO                                   0                       # number of VM exits due to legacy IO
system.cpu1.numInterrupts                           0                       # number of interrupts delivered
system.cpu1.numMMIO                                 0                       # number of VM exits due to memory mapped IO
system.cpu1.numVMExits                              0                       # total number of KVM exits
system.cpu1.numVMHalfEntries                        0                       # number of KVM entries to finalize pending operations
system.cpu1.numWorkItemsCompleted                   0                       # number of work items this cpu completed
system.cpu1.numWorkItemsStarted                     0                       # number of work items this cpu started
system.cpu2.committedInsts                          0                       # Number of instructions committed
system.cpu2.dtb.rdAccesses                          0                       # TLB accesses on read requests
system.cpu2.dtb.rdMisses                            0                       # TLB misses on read requests
system.cpu2.dtb.wrAccesses                          0                       # TLB accesses on write requests
system.cpu2.dtb.wrMisses                            0                       # TLB misses on write requests
system.cpu2.itb.rdAccesses                          0                       # TLB accesses on read requests
system.cpu2.itb.rdMisses                            0                       # TLB misses on read requests
system.cpu2.itb.wrAccesses                          0                       # TLB accesses on write requests
system.cpu2.itb.wrMisses                            0                       # TLB misses on write requests
system.cpu2.kern.inst.arm                           0                       # number of arm instructions executed
system.cpu2.kern.inst.quiesce                       0                       # number of quiesce instructions executed
system.cpu2.numCoalescedMMIO                        0                       # number of coalesced memory mapped IO requests
system.cpu2.numCycles                               0                       # number of cpu cycles simulated
system.cpu2.numExitSignal                           0                       # exits due to signal delivery
system.cpu2.numHalt                                 0                       # number of VM exits due to wait for interrupt instructions
system.cpu2.numHypercalls                           0                       # number of hypercalls
system.cpu2.numIO                                   0                       # number of VM exits due to legacy IO
system.cpu2.numInterrupts                           0                       # number of interrupts delivered
system.cpu2.numMMIO                                 0                       # number of VM exits due to memory mapped IO
system.cpu2.numVMExits                              0                       # total number of KVM exits
system.cpu2.numVMHalfEntries                        0                       # number of KVM entries to finalize pending operations
system.cpu2.numWorkItemsCompleted                   0                       # number of work items this cpu completed
system.cpu2.numWorkItemsStarted                     0                       # number of work items this cpu started
system.cpu3.committedInsts                          0                       # Number of instructions committed
system.cpu3.dtb.rdAccesses                          0                       # TLB accesses on read requests
system.cpu3.dtb.rdMisses                            0                       # TLB misses on read requests
system.cpu3.dtb.wrAccesses                          0                       # TLB accesses on write requests
system.cpu3.dtb.wrMisses                            0                       # TLB misses on write requests
system.cpu3.itb.rdAccesses                          0                       # TLB accesses on read requests
system.cpu3.itb.rdMisses                            0                       # TLB misses on read requests
system.cpu3.itb.wrAccesses                          0                       # TLB accesses on write requests
system.cpu3.itb.wrMisses                            0                       # TLB misses on write requests
system.cpu3.kern.inst.arm                           0                       # number of arm instructions executed
system.cpu3.kern.inst.quiesce                       0                       # number of quiesce instructions executed
system.cpu3.numCoalescedMMIO                        0                       # number of coalesced memory mapped IO requests
system.cpu3.numCycles                               0                       # number of cpu cycles simulated
system.cpu3.numExitSignal                           0                       # exits due to signal delivery
system.cpu3.numHalt                                 0                       # number of VM exits due to wait for interrupt instructions
system.cpu3.numHypercalls                           0                       # number of hypercalls
system.cpu3.numIO                                   0                       # number of VM exits due to legacy IO
system.cpu3.numInterrupts                           0                       # number of interrupts delivered
system.cpu3.numMMIO                                 0                       # number of VM exits due to memory mapped IO
system.cpu3.numVMExits                              0                       # total number of KVM exits
system.cpu3.numVMHalfEntries                        0                       # number of KVM entries to finalize pending operations
system.cpu3.numWorkItemsCompleted                   0                       # number of work items this cpu completed
system.cpu3.numWorkItemsStarted                     0                       # number of work items this cpu started
system.pc.south_bridge.ide.disks.dma_read_bytes      1269760                       # Number of bytes transfered via DMA reads (not PRD).
system.pc.south_bridge.ide.disks.dma_read_full_pages          310                       # Number of full page size DMA reads (not PRD).
system.pc.south_bridge.ide.disks.dma_read_txs          310                       # Number of DMA read transactions (not PRD).
system.pc.south_bridge.ide.disks.dma_write_bytes            0                       # Number of bytes transfered via DMA writes.
system.pc.south_bridge.ide.disks.dma_write_full_pages            0                       # Number of full page size DMA writes.
system.pc.south_bridge.ide.disks.dma_write_txs            0                       # Number of DMA write transactions.
system.ruby.DMA_Controller.I.allocI_load |       20027    100.00%    100.00% |           0      0.00%    100.00%
system.ruby.DMA_Controller.I.allocI_load::total        20027                      
system.ruby.DMA_Controller.I.deallocfwdfrom_in |       19003    100.00%    100.00% |           0      0.00%    100.00%
system.ruby.DMA_Controller.I.deallocfwdfrom_in::total        19003                      
system.ruby.DMA_Controller.S.SloadSEvent |          54    100.00%    100.00% |           0      0.00%    100.00%
system.ruby.DMA_Controller.S.SloadSEvent::total           54                      
system.ruby.DMA_Controller.S.allocTBE    |       19004    100.00%    100.00% |           0      0.00%    100.00%
system.ruby.DMA_Controller.S.allocTBE::total        19004                      
system.ruby.DMA_Controller.S.externalloadSrespfrom_in |       20027    100.00%    100.00% |           0      0.00%    100.00%
system.ruby.DMA_Controller.S.externalloadSrespfrom_in::total        20027                      
system.ruby.DMA_Controller.S_evict.Stallmandatory_in |       54595    100.00%    100.00% |           0      0.00%    100.00%
system.ruby.DMA_Controller.S_evict.Stallmandatory_in::total        54595                      
system.ruby.DMA_Controller.SloadSEvent   |          54    100.00%    100.00% |           0      0.00%    100.00%
system.ruby.DMA_Controller.SloadSEvent::total           54                      
system.ruby.DMA_Controller.Stallmandatory_in |       54595    100.00%    100.00% |           0      0.00%    100.00%
system.ruby.DMA_Controller.Stallmandatory_in::total        54595                      
system.ruby.DMA_Controller.allocI_load   |       20027    100.00%    100.00% |           0      0.00%    100.00%
system.ruby.DMA_Controller.allocI_load::total        20027                      
system.ruby.DMA_Controller.allocTBE      |       19004    100.00%    100.00% |           0      0.00%    100.00%
system.ruby.DMA_Controller.allocTBE::total        19004                      
system.ruby.DMA_Controller.deallocfwdfrom_in |       19003    100.00%    100.00% |           0      0.00%    100.00%
system.ruby.DMA_Controller.deallocfwdfrom_in::total        19003                      
system.ruby.DMA_Controller.externalloadSrespfrom_in |       20027    100.00%    100.00% |           0      0.00%    100.00%
system.ruby.DMA_Controller.externalloadSrespfrom_in::total        20027                      
system.ruby.Directory_Controller.I.allocTBE |      652139     26.25%     26.25% |      614559     24.73%     50.98% |      614091     24.72%     75.70% |      603792     24.30%    100.00%
system.ruby.Directory_Controller.I.allocTBE::total      2484581                      
system.ruby.Directory_Controller.I.deallocTBE |      651316     26.25%     26.25% |      613761     24.74%     50.98% |      613261     24.72%     75.70% |      602990     24.30%    100.00%
system.ruby.Directory_Controller.I.deallocTBE::total      2481328                      
system.ruby.Directory_Controller.I_GetML1C1_0.Stallreqto_in |          78     19.07%     19.07% |         119     29.10%     48.17% |          86     21.03%     69.19% |         126     30.81%    100.00%
system.ruby.Directory_Controller.I_GetML1C1_0.Stallreqto_in::total          409                      
system.ruby.Directory_Controller.I_GetSL1C1_0.Stallreqto_in |         993     23.46%     23.46% |        1139     26.91%     50.38% |        1155     27.29%     77.67% |         945     22.33%    100.00%
system.ruby.Directory_Controller.I_GetSL1C1_0.Stallreqto_in::total         4232                      
system.ruby.Directory_Controller.M.allocTBE |      306349     25.41%     25.41% |      300969     24.96%     50.37% |      301254     24.99%     75.36% |      297037     24.64%    100.00%
system.ruby.Directory_Controller.M.allocTBE::total      1205609                      
system.ruby.Directory_Controller.M.deallocTBE |      306485     25.41%     25.41% |      301103     24.96%     50.37% |      301402     24.99%     75.36% |      297163     24.64%    100.00%
system.ruby.Directory_Controller.M.deallocTBE::total      1206153                      
system.ruby.Directory_Controller.M_GetS.Progress |       17229     25.97%     25.97% |       16185     24.40%     50.37% |       17247     26.00%     76.37% |       15676     23.63%    100.00%
system.ruby.Directory_Controller.M_GetS.Progress::total        66337                      
system.ruby.Directory_Controller.M_GetS.Stallreqto_in |        2597     21.56%     21.56% |        2121     17.61%     39.17% |        3517     29.20%     68.37% |        3809     31.63%    100.00%
system.ruby.Directory_Controller.M_GetS.Stallreqto_in::total        12044                      
system.ruby.Directory_Controller.M_GetS_WBL1C1_0.Stallreqto_in |       17683     25.31%     25.31% |       16997     24.33%     49.64% |       18251     26.13%     75.77% |       16928     24.23%    100.00%
system.ruby.Directory_Controller.M_GetS_WBL1C1_0.Stallreqto_in::total        69859                      
system.ruby.Directory_Controller.M_PutML1C1_0.Stallreqto_in |           3     42.86%     42.86% |           0      0.00%     42.86% |           2     28.57%     71.43% |           2     28.57%    100.00%
system.ruby.Directory_Controller.M_PutML1C1_0.Stallreqto_in::total            7                      
system.ruby.Directory_Controller.Progress |       17229     25.97%     25.97% |       16185     24.40%     50.37% |       17247     26.00%     76.37% |       15676     23.63%    100.00%
system.ruby.Directory_Controller.Progress::total        66337                      
system.ruby.Directory_Controller.S.allocTBE |      913649     27.61%     27.61% |      808688     24.44%     52.05% |      801578     24.22%     76.27% |      785134     23.73%    100.00%
system.ruby.Directory_Controller.S.allocTBE::total      3309049                      
system.ruby.Directory_Controller.S.deallocTBE |      914336     27.61%     27.61% |      809352     24.44%     52.05% |      802260     24.22%     76.27% |      785809     23.73%    100.00%
system.ruby.Directory_Controller.S.deallocTBE::total      3311757                      
system.ruby.Directory_Controller.S_GetML1C1_0.Stallreqto_in |        3147     23.43%     23.43% |        2987     22.24%     45.67% |        3112     23.17%     68.84% |        4185     31.16%    100.00%
system.ruby.Directory_Controller.S_GetML1C1_0.Stallreqto_in::total        13431                      
system.ruby.Directory_Controller.S_GetML1C1_1.Stallreqto_in |          12     16.00%     16.00% |          24     32.00%     48.00% |          24     32.00%     80.00% |          15     20.00%    100.00%
system.ruby.Directory_Controller.S_GetML1C1_1.Stallreqto_in::total           75                      
system.ruby.Directory_Controller.S_GetML1C1_2.Stallreqto_in |           0      0.00%      0.00% |           0      0.00%      0.00% |           0      0.00%      0.00% |         506    100.00%    100.00%
system.ruby.Directory_Controller.S_GetML1C1_2.Stallreqto_in::total          506                      
system.ruby.Directory_Controller.S_GetSL1C1_0.Stallreqto_in |         273      9.66%      9.66% |         408     14.44%     24.11% |         692     24.50%     48.60% |        1452     51.40%    100.00%
system.ruby.Directory_Controller.S_GetSL1C1_0.Stallreqto_in::total         2825                      
system.ruby.Directory_Controller.Stallreqto_in |       24786     23.97%     23.97% |       23795     23.02%     46.99% |       26839     25.96%     72.95% |       27968     27.05%    100.00%
system.ruby.Directory_Controller.Stallreqto_in::total       103388                      
system.ruby.Directory_Controller.allocTBE |     1872137     26.75%     26.75% |     1724216     24.63%     51.38% |     1716923     24.53%     75.91% |     1685963     24.09%    100.00%
system.ruby.Directory_Controller.allocTBE::total      6999239                      
system.ruby.Directory_Controller.deallocTBE |     1872137     26.75%     26.75% |     1724216     24.63%     51.38% |     1716923     24.53%     75.91% |     1685962     24.09%    100.00%
system.ruby.Directory_Controller.deallocTBE::total      6999238                      
system.ruby.IFETCH.hit_latency_hist_seqr::bucket_size            1                      
system.ruby.IFETCH.hit_latency_hist_seqr::max_bucket            9                      
system.ruby.IFETCH.hit_latency_hist_seqr::samples   2011028420                      
system.ruby.IFETCH.hit_latency_hist_seqr |  2011028420    100.00%    100.00% |           0      0.00%    100.00% |           0      0.00%    100.00% |           0      0.00%    100.00% |           0      0.00%    100.00% |           0      0.00%    100.00% |           0      0.00%    100.00% |           0      0.00%    100.00% |           0      0.00%    100.00% |           0      0.00%    100.00%
system.ruby.IFETCH.hit_latency_hist_seqr::total   2011028420                      
system.ruby.IFETCH.latency_hist_seqr::bucket_size            1                      
system.ruby.IFETCH.latency_hist_seqr::max_bucket            9                      
system.ruby.IFETCH.latency_hist_seqr::samples   2011564752                      
system.ruby.IFETCH.latency_hist_seqr     |  2011564752    100.00%    100.00% |           0      0.00%    100.00% |           0      0.00%    100.00% |           0      0.00%    100.00% |           0      0.00%    100.00% |           0      0.00%    100.00% |           0      0.00%    100.00% |           0      0.00%    100.00% |           0      0.00%    100.00% |           0      0.00%    100.00%
system.ruby.IFETCH.latency_hist_seqr::total   2011564752                      
system.ruby.IFETCH.miss_latency_hist_seqr::bucket_size            1                      
system.ruby.IFETCH.miss_latency_hist_seqr::max_bucket            9                      
system.ruby.IFETCH.miss_latency_hist_seqr::samples       536332                      
system.ruby.IFETCH.miss_latency_hist_seqr |      536332    100.00%    100.00% |           0      0.00%    100.00% |           0      0.00%    100.00% |           0      0.00%    100.00% |           0      0.00%    100.00% |           0      0.00%    100.00% |           0      0.00%    100.00% |           0      0.00%    100.00% |           0      0.00%    100.00% |           0      0.00%    100.00%
system.ruby.IFETCH.miss_latency_hist_seqr::total       536332                      
system.ruby.L1Cache_Controller.I.allocI_load |      642906     24.39%     24.39% |      637186     24.18%     48.57% |      607839     23.06%     71.64% |      747548     28.36%    100.00%
system.ruby.L1Cache_Controller.I.allocI_load::total      2635479                      
system.ruby.L1Cache_Controller.I.allocI_store |      149716     24.01%     24.01% |      164862     26.44%     50.46% |      150716     24.17%     74.63% |      158149     25.37%    100.00%
system.ruby.L1Cache_Controller.I.allocI_store::total       623443                      
system.ruby.L1Cache_Controller.I.deallocfwdfrom_in |      791608     24.32%     24.32% |      801031     24.61%     48.93% |      757550     23.27%     72.21% |      904679     27.79%    100.00%
system.ruby.L1Cache_Controller.I.deallocfwdfrom_in::total      3254868                      
system.ruby.L1Cache_Controller.I_store.Progress |        2488     45.52%     45.52% |         652     11.93%     57.45% |        1485     27.17%     84.61% |         841     15.39%    100.00%
system.ruby.L1Cache_Controller.I_store.Progress::total         5466                      
system.ruby.L1Cache_Controller.I_store.Stallfwdfrom_in |         747     23.45%     23.45% |         851     26.71%     50.16% |         789     24.76%     74.92% |         799     25.08%    100.00%
system.ruby.L1Cache_Controller.I_store.Stallfwdfrom_in::total         3186                      
system.ruby.L1Cache_Controller.M.MloadMEvent |    18678282     25.20%     25.20% |    17972968     24.25%     49.44% |    19366777     26.13%     75.57% |    18109607     24.43%    100.00%
system.ruby.L1Cache_Controller.M.MloadMEvent::total     74127634                      
system.ruby.L1Cache_Controller.M.MstoreMEvent |    15355035     25.79%     25.79% |    14169354     23.80%     49.58% |    15395172     25.85%     75.44% |    14625109     24.56%    100.00%
system.ruby.L1Cache_Controller.M.MstoreMEvent::total     59544670                      
system.ruby.L1Cache_Controller.M.allocTBE |      302931     25.13%     25.13% |      296020     24.55%     49.68% |      294819     24.45%     74.14% |      311827     25.86%    100.00%
system.ruby.L1Cache_Controller.M.allocTBE::total      1205597                      
system.ruby.L1Cache_Controller.M.externalstoreMrespfrom_in |      303075     25.13%     25.13% |      296149     24.55%     49.68% |      294950     24.45%     74.14% |      311967     25.86%    100.00%
system.ruby.L1Cache_Controller.M.externalstoreMrespfrom_in::total      1206141                      
system.ruby.L1Cache_Controller.M_evict.Stallmandatory_in |        8105     26.05%     26.05% |        6970     22.40%     48.46% |        8904     28.62%     77.08% |        7132     22.92%    100.00%
system.ruby.L1Cache_Controller.M_evict.Stallmandatory_in::total        31111                      
system.ruby.L1Cache_Controller.M_evict_x_I.Progress |           0      0.00%      0.00% |           0      0.00%      0.00% |           1    100.00%    100.00% |           0      0.00%    100.00%
system.ruby.L1Cache_Controller.M_evict_x_I.Progress::total            1                      
system.ruby.L1Cache_Controller.M_evict_x_I.Stallmandatory_in |           0      0.00%      0.00% |           0      0.00%      0.00% |           2    100.00%    100.00% |           0      0.00%    100.00%
system.ruby.L1Cache_Controller.M_evict_x_I.Stallmandatory_in::total            2                      
system.ruby.L1Cache_Controller.MloadMEvent |    18678282     25.20%     25.20% |    17972968     24.25%     49.44% |    19366777     26.13%     75.57% |    18109607     24.43%    100.00%
system.ruby.L1Cache_Controller.MloadMEvent::total     74127634                      
system.ruby.L1Cache_Controller.MstoreMEvent |    15355035     25.79%     25.79% |    14169354     23.80%     49.58% |    15395172     25.85%     75.44% |    14625109     24.56%    100.00%
system.ruby.L1Cache_Controller.MstoreMEvent::total     59544670                      
system.ruby.L1Cache_Controller.Progress  |      179357     27.20%     27.20% |      146223     22.18%     49.38% |      166191     25.20%     74.58% |      167604     25.42%    100.00%
system.ruby.L1Cache_Controller.Progress::total       659375                      
system.ruby.L1Cache_Controller.S.SloadSEvent |   589855882     25.41%     25.41% |   567826674     24.46%     49.87% |   595903044     25.67%     75.53% |   568043613     24.47%    100.00%
system.ruby.L1Cache_Controller.S.SloadSEvent::total   2321629213                      
system.ruby.L1Cache_Controller.S.allocTBE |      665577     24.67%     24.67% |      648235     24.02%     48.69% |      623585     23.11%     71.80% |      760905     28.20%    100.00%
system.ruby.L1Cache_Controller.S.allocTBE::total      2698302                      
system.ruby.L1Cache_Controller.S.deallocTBE |       23541     35.49%     35.49% |       11937     18.00%     53.48% |       16620     25.06%     78.54% |       14235     21.46%    100.00%
system.ruby.L1Cache_Controller.S.deallocTBE::total        66333                      
system.ruby.L1Cache_Controller.S.externalloadSrespfrom_in |      642906     24.39%     24.39% |      637185     24.18%     48.57% |      607839     23.06%     71.64% |      747548     28.36%    100.00%
system.ruby.L1Cache_Controller.S.externalloadSrespfrom_in::total      2635478                      
system.ruby.L1Cache_Controller.S_evict.Progress |           2     50.00%     50.00% |           0      0.00%     50.00% |           1     25.00%     75.00% |           1     25.00%    100.00%
system.ruby.L1Cache_Controller.S_evict.Progress::total            4                      
system.ruby.L1Cache_Controller.S_evict.Stallmandatory_in |        1698     29.58%     29.58% |        1212     21.11%     50.70% |        1513     26.36%     77.06% |        1317     22.94%    100.00%
system.ruby.L1Cache_Controller.S_evict.Stallmandatory_in::total         5740                      
system.ruby.L1Cache_Controller.S_evict_x_I.Progress |           5     45.45%     45.45% |           2     18.18%     63.64% |           3     27.27%     90.91% |           1      9.09%    100.00%
system.ruby.L1Cache_Controller.S_evict_x_I.Progress::total           11                      
system.ruby.L1Cache_Controller.S_evict_x_I.Stallmandatory_in |           6     46.15%     46.15% |           2     15.38%     61.54% |           4     30.77%     92.31% |           1      7.69%    100.00%
system.ruby.L1Cache_Controller.S_evict_x_I.Stallmandatory_in::total           13                      
system.ruby.L1Cache_Controller.S_store.Progress |      176857     27.05%     27.05% |      145566     22.26%     49.31% |      164698     25.19%     74.50% |      166761     25.50%    100.00%
system.ruby.L1Cache_Controller.S_store.Progress::total       653882                      
system.ruby.L1Cache_Controller.S_store.Stallfwdfrom_in |        2826     35.20%     35.20% |        1198     14.92%     50.12% |        2815     35.06%     85.18% |        1190     14.82%    100.00%
system.ruby.L1Cache_Controller.S_store.Stallfwdfrom_in::total         8029                      
system.ruby.L1Cache_Controller.S_store_GetM_Ack_AD.Progress |           5     45.45%     45.45% |           3     27.27%     72.73% |           3     27.27%    100.00% |           0      0.00%    100.00%
system.ruby.L1Cache_Controller.S_store_GetM_Ack_AD.Progress::total           11                      
system.ruby.L1Cache_Controller.S_store_GetM_Ack_AD.Stallfwdfrom_in |           0      0.00%      0.00% |           0      0.00%      0.00% |           1    100.00%    100.00% |           0      0.00%    100.00%
system.ruby.L1Cache_Controller.S_store_GetM_Ack_AD.Stallfwdfrom_in::total            1                      
system.ruby.L1Cache_Controller.SloadSEvent |   589855882     25.41%     25.41% |   567826674     24.46%     49.87% |   595903044     25.67%     75.53% |   568043613     24.47%    100.00%
system.ruby.L1Cache_Controller.SloadSEvent::total   2321629213                      
system.ruby.L1Cache_Controller.Stallfwdfrom_in |        3573     31.86%     31.86% |        2049     18.27%     50.12% |        3605     32.14%     82.27% |        1989     17.73%    100.00%
system.ruby.L1Cache_Controller.Stallfwdfrom_in::total        11216                      
system.ruby.L1Cache_Controller.Stallmandatory_in |        9809     26.61%     26.61% |        8184     22.20%     48.81% |       10423     28.27%     77.08% |        8450     22.92%    100.00%
system.ruby.L1Cache_Controller.Stallmandatory_in::total        36866                      
system.ruby.L1Cache_Controller.allocI_load |      642906     24.39%     24.39% |      637186     24.18%     48.57% |      607839     23.06%     71.64% |      747548     28.36%    100.00%
system.ruby.L1Cache_Controller.allocI_load::total      2635479                      
system.ruby.L1Cache_Controller.allocI_store |      149716     24.01%     24.01% |      164862     26.44%     50.46% |      150716     24.17%     74.63% |      158149     25.37%    100.00%
system.ruby.L1Cache_Controller.allocI_store::total       623443                      
system.ruby.L1Cache_Controller.allocTBE  |      968508     24.81%     24.81% |      944255     24.19%     49.00% |      918404     23.53%     72.52% |     1072732     27.48%    100.00%
system.ruby.L1Cache_Controller.allocTBE::total      3903899                      
system.ruby.L1Cache_Controller.deallocTBE |       23541     35.49%     35.49% |       11937     18.00%     53.48% |       16620     25.06%     78.54% |       14235     21.46%    100.00%
system.ruby.L1Cache_Controller.deallocTBE::total        66333                      
system.ruby.L1Cache_Controller.deallocfwdfrom_in |      791608     24.32%     24.32% |      801031     24.61%     48.93% |      757550     23.27%     72.21% |      904679     27.79%    100.00%
system.ruby.L1Cache_Controller.deallocfwdfrom_in::total      3254868                      
system.ruby.L1Cache_Controller.externalloadSrespfrom_in |      642906     24.39%     24.39% |      637185     24.18%     48.57% |      607839     23.06%     71.64% |      747548     28.36%    100.00%
system.ruby.L1Cache_Controller.externalloadSrespfrom_in::total      2635478                      
system.ruby.L1Cache_Controller.externalstoreMrespfrom_in |      303075     25.13%     25.13% |      296149     24.55%     49.68% |      294950     24.45%     74.14% |      311967     25.86%    100.00%
system.ruby.L1Cache_Controller.externalstoreMrespfrom_in::total      1206141                      
system.ruby.LD.hit_latency_hist_seqr::bucket_size            1                      
system.ruby.LD.hit_latency_hist_seqr::max_bucket            9                      
system.ruby.LD.hit_latency_hist_seqr::samples    384728427                      
system.ruby.LD.hit_latency_hist_seqr     |   384728427    100.00%    100.00% |           0      0.00%    100.00% |           0      0.00%    100.00% |           0      0.00%    100.00% |           0      0.00%    100.00% |           0      0.00%    100.00% |           0      0.00%    100.00% |           0      0.00%    100.00% |           0      0.00%    100.00% |           0      0.00%    100.00%
system.ruby.LD.hit_latency_hist_seqr::total    384728427                      
system.ruby.LD.latency_hist_seqr::bucket_size            1                      
system.ruby.LD.latency_hist_seqr::max_bucket            9                      
system.ruby.LD.latency_hist_seqr::samples    386827573                      
system.ruby.LD.latency_hist_seqr         |   386827573    100.00%    100.00% |           0      0.00%    100.00% |           0      0.00%    100.00% |           0      0.00%    100.00% |           0      0.00%    100.00% |           0      0.00%    100.00% |           0      0.00%    100.00% |           0      0.00%    100.00% |           0      0.00%    100.00% |           0      0.00%    100.00%
system.ruby.LD.latency_hist_seqr::total     386827573                      
system.ruby.LD.miss_latency_hist_seqr::bucket_size            1                      
system.ruby.LD.miss_latency_hist_seqr::max_bucket            9                      
system.ruby.LD.miss_latency_hist_seqr::samples      2099146                      
system.ruby.LD.miss_latency_hist_seqr    |     2099146    100.00%    100.00% |           0      0.00%    100.00% |           0      0.00%    100.00% |           0      0.00%    100.00% |           0      0.00%    100.00% |           0      0.00%    100.00% |           0      0.00%    100.00% |           0      0.00%    100.00% |           0      0.00%    100.00% |           0      0.00%    100.00%
system.ruby.LD.miss_latency_hist_seqr::total      2099146                      
system.ruby.Locked_RMW_Read.hit_latency_hist_seqr::bucket_size            1                      
system.ruby.Locked_RMW_Read.hit_latency_hist_seqr::max_bucket            9                      
system.ruby.Locked_RMW_Read.hit_latency_hist_seqr::samples      2101138                      
system.ruby.Locked_RMW_Read.hit_latency_hist_seqr |     2101138    100.00%    100.00% |           0      0.00%    100.00% |           0      0.00%    100.00% |           0      0.00%    100.00% |           0      0.00%    100.00% |           0      0.00%    100.00% |           0      0.00%    100.00% |           0      0.00%    100.00% |           0      0.00%    100.00% |           0      0.00%    100.00%
system.ruby.Locked_RMW_Read.hit_latency_hist_seqr::total      2101138                      
system.ruby.Locked_RMW_Read.latency_hist_seqr::bucket_size            1                      
system.ruby.Locked_RMW_Read.latency_hist_seqr::max_bucket            9                      
system.ruby.Locked_RMW_Read.latency_hist_seqr::samples      2210104                      
system.ruby.Locked_RMW_Read.latency_hist_seqr |     2210104    100.00%    100.00% |           0      0.00%    100.00% |           0      0.00%    100.00% |           0      0.00%    100.00% |           0      0.00%    100.00% |           0      0.00%    100.00% |           0      0.00%    100.00% |           0      0.00%    100.00% |           0      0.00%    100.00% |           0      0.00%    100.00%
system.ruby.Locked_RMW_Read.latency_hist_seqr::total      2210104                      
system.ruby.Locked_RMW_Read.miss_latency_hist_seqr::bucket_size            1                      
system.ruby.Locked_RMW_Read.miss_latency_hist_seqr::max_bucket            9                      
system.ruby.Locked_RMW_Read.miss_latency_hist_seqr::samples       108966                      
system.ruby.Locked_RMW_Read.miss_latency_hist_seqr |      108966    100.00%    100.00% |           0      0.00%    100.00% |           0      0.00%    100.00% |           0      0.00%    100.00% |           0      0.00%    100.00% |           0      0.00%    100.00% |           0      0.00%    100.00% |           0      0.00%    100.00% |           0      0.00%    100.00% |           0      0.00%    100.00%
system.ruby.Locked_RMW_Read.miss_latency_hist_seqr::total       108966                      
system.ruby.Locked_RMW_Write.hit_latency_hist_seqr::bucket_size            1                      
system.ruby.Locked_RMW_Write.hit_latency_hist_seqr::max_bucket            9                      
system.ruby.Locked_RMW_Write.hit_latency_hist_seqr::samples      2210104                      
system.ruby.Locked_RMW_Write.hit_latency_hist_seqr |     2210104    100.00%    100.00% |           0      0.00%    100.00% |           0      0.00%    100.00% |           0      0.00%    100.00% |           0      0.00%    100.00% |           0      0.00%    100.00% |           0      0.00%    100.00% |           0      0.00%    100.00% |           0      0.00%    100.00% |           0      0.00%    100.00%
system.ruby.Locked_RMW_Write.hit_latency_hist_seqr::total      2210104                      
system.ruby.Locked_RMW_Write.latency_hist_seqr::bucket_size            1                      
system.ruby.Locked_RMW_Write.latency_hist_seqr::max_bucket            9                      
system.ruby.Locked_RMW_Write.latency_hist_seqr::samples      2210104                      
system.ruby.Locked_RMW_Write.latency_hist_seqr |     2210104    100.00%    100.00% |           0      0.00%    100.00% |           0      0.00%    100.00% |           0      0.00%    100.00% |           0      0.00%    100.00% |           0      0.00%    100.00% |           0      0.00%    100.00% |           0      0.00%    100.00% |           0      0.00%    100.00% |           0      0.00%    100.00%
system.ruby.Locked_RMW_Write.latency_hist_seqr::total      2210104                      
system.ruby.RMW_Read.hit_latency_hist_seqr::bucket_size            1                      
system.ruby.RMW_Read.hit_latency_hist_seqr::max_bucket            9                      
system.ruby.RMW_Read.hit_latency_hist_seqr::samples      3231684                      
system.ruby.RMW_Read.hit_latency_hist_seqr |     3231684    100.00%    100.00% |           0      0.00%    100.00% |           0      0.00%    100.00% |           0      0.00%    100.00% |           0      0.00%    100.00% |           0      0.00%    100.00% |           0      0.00%    100.00% |           0      0.00%    100.00% |           0      0.00%    100.00% |           0      0.00%    100.00%
system.ruby.RMW_Read.hit_latency_hist_seqr::total      3231684                      
system.ruby.RMW_Read.latency_hist_seqr::bucket_size            1                      
system.ruby.RMW_Read.latency_hist_seqr::max_bucket            9                      
system.ruby.RMW_Read.latency_hist_seqr::samples      3255911                      
system.ruby.RMW_Read.latency_hist_seqr   |     3255911    100.00%    100.00% |           0      0.00%    100.00% |           0      0.00%    100.00% |           0      0.00%    100.00% |           0      0.00%    100.00% |           0      0.00%    100.00% |           0      0.00%    100.00% |           0      0.00%    100.00% |           0      0.00%    100.00% |           0      0.00%    100.00%
system.ruby.RMW_Read.latency_hist_seqr::total      3255911                      
system.ruby.RMW_Read.miss_latency_hist_seqr::bucket_size            1                      
system.ruby.RMW_Read.miss_latency_hist_seqr::max_bucket            9                      
system.ruby.RMW_Read.miss_latency_hist_seqr::samples        24227                      
system.ruby.RMW_Read.miss_latency_hist_seqr |       24227    100.00%    100.00% |           0      0.00%    100.00% |           0      0.00%    100.00% |           0      0.00%    100.00% |           0      0.00%    100.00% |           0      0.00%    100.00% |           0      0.00%    100.00% |           0      0.00%    100.00% |           0      0.00%    100.00% |           0      0.00%    100.00%
system.ruby.RMW_Read.miss_latency_hist_seqr::total        24227                      
system.ruby.ST.hit_latency_hist_seqr::bucket_size            1                      
system.ruby.ST.hit_latency_hist_seqr::max_bucket            9                      
system.ruby.ST.hit_latency_hist_seqr::samples     52001744                      
system.ruby.ST.hit_latency_hist_seqr     |    52001744    100.00%    100.00% |           0      0.00%    100.00% |           0      0.00%    100.00% |           0      0.00%    100.00% |           0      0.00%    100.00% |           0      0.00%    100.00% |           0      0.00%    100.00% |           0      0.00%    100.00% |           0      0.00%    100.00% |           0      0.00%    100.00%
system.ruby.ST.hit_latency_hist_seqr::total     52001744                      
system.ruby.ST.latency_hist_seqr::bucket_size            1                      
system.ruby.ST.latency_hist_seqr::max_bucket            9                      
system.ruby.ST.latency_hist_seqr::samples     53074692                      
system.ruby.ST.latency_hist_seqr         |    53074692    100.00%    100.00% |           0      0.00%    100.00% |           0      0.00%    100.00% |           0      0.00%    100.00% |           0      0.00%    100.00% |           0      0.00%    100.00% |           0      0.00%    100.00% |           0      0.00%    100.00% |           0      0.00%    100.00% |           0      0.00%    100.00%
system.ruby.ST.latency_hist_seqr::total      53074692                      
system.ruby.ST.miss_latency_hist_seqr::bucket_size            1                      
system.ruby.ST.miss_latency_hist_seqr::max_bucket            9                      
system.ruby.ST.miss_latency_hist_seqr::samples      1072948                      
system.ruby.ST.miss_latency_hist_seqr    |     1072948    100.00%    100.00% |           0      0.00%    100.00% |           0      0.00%    100.00% |           0      0.00%    100.00% |           0      0.00%    100.00% |           0      0.00%    100.00% |           0      0.00%    100.00% |           0      0.00%    100.00% |           0      0.00%    100.00% |           0      0.00%    100.00%
system.ruby.ST.miss_latency_hist_seqr::total      1072948                      
system.ruby.dir_cntrl0.fwdFrom.avg_buf_msgs     0.003858                       # Average number of messages in buffer
system.ruby.dir_cntrl0.fwdFrom.avg_stall_time  3000.005310                       # Average number of cycles messages are stalled in this MB
system.ruby.dir_cntrl0.reqTo.avg_buf_msgs     0.001527                       # Average number of messages in buffer
system.ruby.dir_cntrl0.reqTo.avg_stall_time  5023.498222                       # Average number of cycles messages are stalled in this MB
system.ruby.dir_cntrl0.requestToMemory.avg_buf_msgs     0.000927                       # Average number of messages in buffer
system.ruby.dir_cntrl0.requestToMemory.avg_stall_time   499.999883                       # Average number of cycles messages are stalled in this MB
system.ruby.dir_cntrl0.respFrom.avg_buf_msgs     0.004483                       # Average number of messages in buffer
system.ruby.dir_cntrl0.respFrom.avg_stall_time  3009.644647                       # Average number of cycles messages are stalled in this MB
system.ruby.dir_cntrl0.respTo.avg_buf_msgs     0.000012                       # Average number of messages in buffer
system.ruby.dir_cntrl0.respTo.avg_stall_time 24270.780281                       # Average number of cycles messages are stalled in this MB
system.ruby.dir_cntrl0.responseFromMemory.avg_buf_msgs     0.000928                       # Average number of messages in buffer
system.ruby.dir_cntrl0.responseFromMemory.avg_stall_time   499.999759                       # Average number of cycles messages are stalled in this MB
system.ruby.dir_cntrl1.fwdFrom.avg_buf_msgs     0.003556                       # Average number of messages in buffer
system.ruby.dir_cntrl1.fwdFrom.avg_stall_time  2999.962483                       # Average number of cycles messages are stalled in this MB
system.ruby.dir_cntrl1.reqTo.avg_buf_msgs     0.001413                       # Average number of messages in buffer
system.ruby.dir_cntrl1.reqTo.avg_stall_time  5083.751413                       # Average number of cycles messages are stalled in this MB
system.ruby.dir_cntrl1.requestToMemory.avg_buf_msgs     0.000865                       # Average number of messages in buffer
system.ruby.dir_cntrl1.requestToMemory.avg_stall_time   499.999921                       # Average number of cycles messages are stalled in this MB
system.ruby.dir_cntrl1.respFrom.avg_buf_msgs     0.004142                       # Average number of messages in buffer
system.ruby.dir_cntrl1.respFrom.avg_stall_time  3009.629024                       # Average number of cycles messages are stalled in this MB
system.ruby.dir_cntrl1.respTo.avg_buf_msgs     0.000012                       # Average number of messages in buffer
system.ruby.dir_cntrl1.respTo.avg_stall_time 24537.883306                       # Average number of cycles messages are stalled in this MB
system.ruby.dir_cntrl1.responseFromMemory.avg_buf_msgs     0.000867                       # Average number of messages in buffer
system.ruby.dir_cntrl1.responseFromMemory.avg_stall_time   499.999861                       # Average number of cycles messages are stalled in this MB
system.ruby.dir_cntrl2.fwdFrom.avg_buf_msgs     0.003538                       # Average number of messages in buffer
system.ruby.dir_cntrl2.fwdFrom.avg_stall_time  2999.967642                       # Average number of cycles messages are stalled in this MB
system.ruby.dir_cntrl2.reqTo.avg_buf_msgs     0.001430                       # Average number of messages in buffer
system.ruby.dir_cntrl2.reqTo.avg_stall_time  5070.161620                       # Average number of cycles messages are stalled in this MB
system.ruby.dir_cntrl2.requestToMemory.avg_buf_msgs     0.000865                       # Average number of messages in buffer
system.ruby.dir_cntrl2.requestToMemory.avg_stall_time   499.999666                       # Average number of cycles messages are stalled in this MB
system.ruby.dir_cntrl2.respFrom.avg_buf_msgs     0.004140                       # Average number of messages in buffer
system.ruby.dir_cntrl2.respFrom.avg_stall_time  3009.928498                       # Average number of cycles messages are stalled in this MB
system.ruby.dir_cntrl2.respTo.avg_buf_msgs     0.000012                       # Average number of messages in buffer
system.ruby.dir_cntrl2.respTo.avg_stall_time 24530.033801                       # Average number of cycles messages are stalled in this MB
system.ruby.dir_cntrl2.responseFromMemory.avg_buf_msgs     0.000866                       # Average number of messages in buffer
system.ruby.dir_cntrl2.responseFromMemory.avg_stall_time   499.999606                       # Average number of cycles messages are stalled in this MB
system.ruby.dir_cntrl3.fwdFrom.avg_buf_msgs     0.003476                       # Average number of messages in buffer
system.ruby.dir_cntrl3.fwdFrom.avg_stall_time  2999.986942                       # Average number of cycles messages are stalled in this MB
system.ruby.dir_cntrl3.reqTo.avg_buf_msgs     0.001416                       # Average number of messages in buffer
system.ruby.dir_cntrl3.reqTo.avg_stall_time  5030.667121                       # Average number of cycles messages are stalled in this MB
system.ruby.dir_cntrl3.requestToMemory.avg_buf_msgs     0.000848                       # Average number of messages in buffer
system.ruby.dir_cntrl3.requestToMemory.avg_stall_time   500.000006                       # Average number of cycles messages are stalled in this MB
system.ruby.dir_cntrl3.respFrom.avg_buf_msgs     0.004058                       # Average number of messages in buffer
system.ruby.dir_cntrl3.respFrom.avg_stall_time  3012.197420                       # Average number of cycles messages are stalled in this MB
system.ruby.dir_cntrl3.respTo.avg_buf_msgs     0.000011                       # Average number of messages in buffer
system.ruby.dir_cntrl3.respTo.avg_stall_time 24716.583283                       # Average number of cycles messages are stalled in this MB
system.ruby.dir_cntrl3.responseFromMemory.avg_buf_msgs     0.000849                       # Average number of messages in buffer
system.ruby.dir_cntrl3.responseFromMemory.avg_stall_time   499.999936                       # Average number of cycles messages are stalled in this MB
system.ruby.dma_cntrl0.cache.demand_accesses            0                       # Number of cache demand accesses
system.ruby.dma_cntrl0.cache.demand_hits            0                       # Number of cache demand hits
system.ruby.dma_cntrl0.cache.demand_misses            0                       # Number of cache demand misses
system.ruby.dma_cntrl0.fully_busy_cycles        16712                       # cycles for which number of transistions == max transitions
system.ruby.dma_cntrl0.fwdFrom.avg_buf_msgs     0.000014                       # Average number of messages in buffer
system.ruby.dma_cntrl0.fwdFrom.avg_stall_time  6792.981665                       # Average number of cycles messages are stalled in this MB
system.ruby.dma_cntrl0.mandatoryQueue.avg_buf_msgs     0.000469                       # Average number of messages in buffer
system.ruby.dma_cntrl0.mandatoryQueue.avg_stall_time 22988.801068                       # Average number of cycles messages are stalled in this MB
system.ruby.dma_cntrl0.reqTo.avg_buf_msgs     0.000215                       # Average number of messages in buffer
system.ruby.dma_cntrl0.reqTo.avg_stall_time   499.346132                       # Average number of cycles messages are stalled in this MB
system.ruby.dma_cntrl0.respFrom.avg_buf_msgs     0.000014                       # Average number of messages in buffer
system.ruby.dma_cntrl0.respFrom.avg_stall_time 73650.836291                       # Average number of cycles messages are stalled in this MB
system.ruby.dma_cntrl0.respTo.avg_buf_msgs     0.000000                       # Average number of messages in buffer
system.ruby.dma_cntrl0.respTo.avg_stall_time   499.174963                       # Average number of cycles messages are stalled in this MB
system.ruby.hit_latency_hist_seqr::bucket_size            1                      
system.ruby.hit_latency_hist_seqr::max_bucket            9                      
system.ruby.hit_latency_hist_seqr::samples   2455301517                      
system.ruby.hit_latency_hist_seqr        |  2455301517    100.00%    100.00% |           0      0.00%    100.00% |           0      0.00%    100.00% |           0      0.00%    100.00% |           0      0.00%    100.00% |           0      0.00%    100.00% |           0      0.00%    100.00% |           0      0.00%    100.00% |           0      0.00%    100.00% |           0      0.00%    100.00%
system.ruby.hit_latency_hist_seqr::total   2455301517                      
system.ruby.io_controller.cache.demand_accesses            0                       # Number of cache demand accesses
system.ruby.io_controller.cache.demand_hits            0                       # Number of cache demand hits
system.ruby.io_controller.cache.demand_misses            0                       # Number of cache demand misses
system.ruby.l1_cntrl0.cache.demand_accesses            0                       # Number of cache demand accesses
system.ruby.l1_cntrl0.cache.demand_hits             0                       # Number of cache demand hits
system.ruby.l1_cntrl0.cache.demand_misses            0                       # Number of cache demand misses
system.ruby.l1_cntrl0.fully_busy_cycles            84                       # cycles for which number of transistions == max transitions
system.ruby.l1_cntrl0.fwdFrom.avg_buf_msgs    16.591438                       # Average number of messages in buffer
system.ruby.l1_cntrl0.fwdFrom.avg_stall_time  6457.625263                       # Average number of cycles messages are stalled in this MB
system.ruby.l1_cntrl0.mandatoryQueue.avg_buf_msgs     0.465488                       # Average number of messages in buffer
system.ruby.l1_cntrl0.mandatoryQueue.avg_stall_time  1218.925315                       # Average number of cycles messages are stalled in this MB
system.ruby.l1_cntrl0.reqTo.avg_buf_msgs     0.001227                       # Average number of messages in buffer
system.ruby.l1_cntrl0.reqTo.avg_stall_time   500.001379                       # Average number of cycles messages are stalled in this MB
system.ruby.l1_cntrl0.respFrom.avg_buf_msgs     0.000699                       # Average number of messages in buffer
system.ruby.l1_cntrl0.respFrom.avg_stall_time 16531.758543                       # Average number of cycles messages are stalled in this MB
system.ruby.l1_cntrl0.respTo.avg_buf_msgs     0.000077                       # Average number of messages in buffer
system.ruby.l1_cntrl0.respTo.avg_stall_time   712.336759                       # Average number of cycles messages are stalled in this MB
system.ruby.l1_cntrl1.cache.demand_accesses            0                       # Number of cache demand accesses
system.ruby.l1_cntrl1.cache.demand_hits             0                       # Number of cache demand hits
system.ruby.l1_cntrl1.cache.demand_misses            0                       # Number of cache demand misses
system.ruby.l1_cntrl1.fully_busy_cycles            49                       # cycles for which number of transistions == max transitions
system.ruby.l1_cntrl1.fwdFrom.avg_buf_msgs    33.257275                       # Average number of messages in buffer
system.ruby.l1_cntrl1.fwdFrom.avg_stall_time  6538.429733                       # Average number of cycles messages are stalled in this MB
system.ruby.l1_cntrl1.mandatoryQueue.avg_buf_msgs     0.448549                       # Average number of messages in buffer
system.ruby.l1_cntrl1.mandatoryQueue.avg_stall_time  1257.489356                       # Average number of cycles messages are stalled in this MB
system.ruby.l1_cntrl1.reqTo.avg_buf_msgs     0.001226                       # Average number of messages in buffer
system.ruby.l1_cntrl1.reqTo.avg_stall_time   500.002274                       # Average number of cycles messages are stalled in this MB
system.ruby.l1_cntrl1.respFrom.avg_buf_msgs     0.000683                       # Average number of messages in buffer
system.ruby.l1_cntrl1.respFrom.avg_stall_time 16573.511643                       # Average number of cycles messages are stalled in this MB
system.ruby.l1_cntrl1.respTo.avg_buf_msgs     0.000049                       # Average number of messages in buffer
system.ruby.l1_cntrl1.respTo.avg_stall_time   525.340962                       # Average number of cycles messages are stalled in this MB
system.ruby.l1_cntrl2.cache.demand_accesses            0                       # Number of cache demand accesses
system.ruby.l1_cntrl2.cache.demand_hits             0                       # Number of cache demand hits
system.ruby.l1_cntrl2.cache.demand_misses            0                       # Number of cache demand misses
system.ruby.l1_cntrl2.fully_busy_cycles            71                       # cycles for which number of transistions == max transitions
system.ruby.l1_cntrl2.fwdFrom.avg_buf_msgs    45.258695                       # Average number of messages in buffer
system.ruby.l1_cntrl2.fwdFrom.avg_stall_time  6487.165729                       # Average number of cycles messages are stalled in this MB
system.ruby.l1_cntrl2.mandatoryQueue.avg_buf_msgs     0.469798                       # Average number of messages in buffer
system.ruby.l1_cntrl2.mandatoryQueue.avg_stall_time  1206.378100                       # Average number of cycles messages are stalled in this MB
system.ruby.l1_cntrl2.reqTo.avg_buf_msgs     0.001170                       # Average number of messages in buffer
system.ruby.l1_cntrl2.reqTo.avg_stall_time   500.001365                       # Average number of cycles messages are stalled in this MB
system.ruby.l1_cntrl2.respFrom.avg_buf_msgs     0.000665                       # Average number of messages in buffer
system.ruby.l1_cntrl2.respFrom.avg_stall_time 16518.024676                       # Average number of cycles messages are stalled in this MB
system.ruby.l1_cntrl2.respTo.avg_buf_msgs     0.000063                       # Average number of messages in buffer
system.ruby.l1_cntrl2.respTo.avg_stall_time   515.640782                       # Average number of cycles messages are stalled in this MB
system.ruby.l1_cntrl3.cache.demand_accesses            0                       # Number of cache demand accesses
system.ruby.l1_cntrl3.cache.demand_hits             0                       # Number of cache demand hits
system.ruby.l1_cntrl3.cache.demand_misses            0                       # Number of cache demand misses
system.ruby.l1_cntrl3.fully_busy_cycles            53                       # cycles for which number of transistions == max transitions
system.ruby.l1_cntrl3.fwdFrom.avg_buf_msgs    40.888000                       # Average number of messages in buffer
system.ruby.l1_cntrl3.fwdFrom.avg_stall_time  6564.413923                       # Average number of cycles messages are stalled in this MB
system.ruby.l1_cntrl3.mandatoryQueue.avg_buf_msgs     0.451072                       # Average number of messages in buffer
system.ruby.l1_cntrl3.mandatoryQueue.avg_stall_time  1334.262536                       # Average number of cycles messages are stalled in this MB
system.ruby.l1_cntrl3.reqTo.avg_buf_msgs     0.001391                       # Average number of messages in buffer
system.ruby.l1_cntrl3.reqTo.avg_stall_time   500.002229                       # Average number of cycles messages are stalled in this MB
system.ruby.l1_cntrl3.respFrom.avg_buf_msgs     0.000773                       # Average number of messages in buffer
system.ruby.l1_cntrl3.respFrom.avg_stall_time 16536.151411                       # Average number of cycles messages are stalled in this MB
system.ruby.l1_cntrl3.respTo.avg_buf_msgs     0.000055                       # Average number of messages in buffer
system.ruby.l1_cntrl3.respTo.avg_stall_time   520.330060                       # Average number of cycles messages are stalled in this MB
system.ruby.latency_hist_seqr::bucket_size            1                      
system.ruby.latency_hist_seqr::max_bucket            9                      
system.ruby.latency_hist_seqr::samples     2459143136                      
system.ruby.latency_hist_seqr            |  2459143136    100.00%    100.00% |           0      0.00%    100.00% |           0      0.00%    100.00% |           0      0.00%    100.00% |           0      0.00%    100.00% |           0      0.00%    100.00% |           0      0.00%    100.00% |           0      0.00%    100.00% |           0      0.00%    100.00% |           0      0.00%    100.00%
system.ruby.latency_hist_seqr::total       2459143136                      
system.ruby.miss_latency_hist_seqr::bucket_size            1                      
system.ruby.miss_latency_hist_seqr::max_bucket            9                      
system.ruby.miss_latency_hist_seqr::samples      3841619                      
system.ruby.miss_latency_hist_seqr       |     3841619    100.00%    100.00% |           0      0.00%    100.00% |           0      0.00%    100.00% |           0      0.00%    100.00% |           0      0.00%    100.00% |           0      0.00%    100.00% |           0      0.00%    100.00% |           0      0.00%    100.00% |           0      0.00%    100.00% |           0      0.00%    100.00%
system.ruby.miss_latency_hist_seqr::total      3841619                      
system.ruby.network.average_flit_latency    17.165468                      
system.ruby.network.average_flit_network_latency    12.803695                      
system.ruby.network.average_flit_queueing_latency     4.361773                      
system.ruby.network.average_flit_vnet_latency |   15.873303                       |    5.009696                       |    9.751686                       |         nan                       |         nan                       |         nan                       |         nan                       |         nan                      
system.ruby.network.average_flit_vqueue_latency |    5.995341                       |    6.000142                       |    1.023107                       |         nan                       |         nan                       |         nan                       |         nan                       |         nan                      
system.ruby.network.average_hops             0.999642                      
system.ruby.network.average_packet_latency    15.783312                      
system.ruby.network.average_packet_network_latency    12.226479                      
system.ruby.network.average_packet_queueing_latency     3.556833                      
system.ruby.network.average_packet_vnet_latency |   25.541166                       |    5.009696                       |    8.064038                       |         nan                       |         nan                       |         nan                       |         nan                       |         nan                      
system.ruby.network.average_packet_vqueue_latency |    5.922706                       |    6.000142                       |    1.037135                       |         nan                       |         nan                       |         nan                       |         nan                       |         nan                      
system.ruby.network.avg_link_utilization     0.074201                      
system.ruby.network.avg_vc_load          |    0.031645     42.65%     42.65% |    0.003807      5.13%     47.78% |    0.003581      4.83%     52.60% |    0.003570      4.81%     57.42% |    0.005397      7.27%     64.69% |    0.000615      0.83%     65.52% |    0.000605      0.82%     66.33% |    0.000604      0.81%     67.15% |    0.018044     24.32%     91.47% |    0.002264      3.05%     94.52% |    0.002037      2.75%     97.26% |    0.002031      2.74%    100.00% |           0      0.00%    100.00% |           0      0.00%    100.00% |           0      0.00%    100.00% |           0      0.00%    100.00% |           0      0.00%    100.00% |           0      0.00%    100.00% |           0      0.00%    100.00% |           0      0.00%    100.00% |           0      0.00%    100.00% |           0      0.00%    100.00% |           0      0.00%    100.00% |           0      0.00%    100.00% |           0      0.00%    100.00% |           0      0.00%    100.00% |           0      0.00%    100.00% |           0      0.00%    100.00% |           0      0.00%    100.00% |           0      0.00%    100.00% |           0      0.00%    100.00% |           0      0.00%    100.00%
system.ruby.network.avg_vc_load::total       0.074201                      
system.ruby.network.ext_in_link_utilization     34343007                      
system.ruby.network.ext_out_link_utilization     34343007                      
system.ruby.network.flit_network_latency |   312904547                       |    16753255                       |   110059582                       |           0                       |           0                       |           0                       |           0                       |           0                      
system.ruby.network.flit_queueing_latency |   118183936                       |    20065471                       |    11547006                       |           0                       |           0                       |           0                       |           0                       |           0                      
system.ruby.network.flits_injected       |    19712630     57.40%     57.40% |     3344166      9.74%     67.14% |    11286211     32.86%    100.00% |           0      0.00%    100.00% |           0      0.00%    100.00% |           0      0.00%    100.00% |           0      0.00%    100.00% |           0      0.00%    100.00%
system.ruby.network.flits_injected::total     34343007                      
system.ruby.network.flits_received       |    19712630     57.40%     57.40% |     3344166      9.74%     67.14% |    11286211     32.86%    100.00% |           0      0.00%    100.00% |           0      0.00%    100.00% |           0      0.00%    100.00% |           0      0.00%    100.00% |           0      0.00%    100.00%
system.ruby.network.flits_received::total     34343007                      
system.ruby.network.int_link_utilization     34330728                      
system.ruby.network.packet_network_latency |   102182490                       |    16753255                       |    56442128                       |           0                       |           0                       |           0                       |           0                       |           0                      
system.ruby.network.packet_queueing_latency |    23694960                       |    20065471                       |     7259154                       |           0                       |           0                       |           0                       |           0                       |           0                      
system.ruby.network.packets_injected     |     4000698     27.89%     27.89% |     3344166     23.31%     51.20% |     6999239     48.80%    100.00% |           0      0.00%    100.00% |           0      0.00%    100.00% |           0      0.00%    100.00% |           0      0.00%    100.00% |           0      0.00%    100.00%
system.ruby.network.packets_injected::total     14344103                      
system.ruby.network.packets_received     |     4000698     27.89%     27.89% |     3344166     23.31%     51.20% |     6999239     48.80%    100.00% |           0      0.00%    100.00% |           0      0.00%    100.00% |           0      0.00%    100.00% |           0      0.00%    100.00% |           0      0.00%    100.00%
system.ruby.network.packets_received::total     14344103                      
system.ruby.network.routers0.buffer_reads     17469737                      
system.ruby.network.routers0.buffer_writes     17469737                      
system.ruby.network.routers0.crossbar_activity     17469737                      
system.ruby.network.routers0.sw_input_arbiter_activity     17539012                      
system.ruby.network.routers0.sw_output_arbiter_activity     17469737                      
system.ruby.network.routers1.buffer_reads     17132973                      
system.ruby.network.routers1.buffer_writes     17132973                      
system.ruby.network.routers1.crossbar_activity     17132973                      
system.ruby.network.routers1.sw_input_arbiter_activity     17157130                      
system.ruby.network.routers1.sw_output_arbiter_activity     17132973                      
system.ruby.network.routers2.buffer_reads     16681155                      
system.ruby.network.routers2.buffer_writes     16681155                      
system.ruby.network.routers2.crossbar_activity     16681155                      
system.ruby.network.routers2.sw_input_arbiter_activity     16713842                      
system.ruby.network.routers2.sw_output_arbiter_activity     16681155                      
system.ruby.network.routers3.buffer_reads     17389870                      
system.ruby.network.routers3.buffer_writes     17389870                      
system.ruby.network.routers3.crossbar_activity     17389870                      
system.ruby.network.routers3.sw_input_arbiter_activity     17414323                      
system.ruby.network.routers3.sw_output_arbiter_activity     17389870                      
system.ruby.outstanding_req_hist_seqr::bucket_size            1                      
system.ruby.outstanding_req_hist_seqr::max_bucket            9                      
system.ruby.outstanding_req_hist_seqr::samples   2459143137                      
system.ruby.outstanding_req_hist_seqr::mean     1.001928                      
system.ruby.outstanding_req_hist_seqr::gmean     1.001337                      
system.ruby.outstanding_req_hist_seqr::stdev     0.043862                      
system.ruby.outstanding_req_hist_seqr    |           0      0.00%      0.00% |  2454402975     99.81%     99.81% |     4740162      0.19%    100.00% |           0      0.00%    100.00% |           0      0.00%    100.00% |           0      0.00%    100.00% |           0      0.00%    100.00% |           0      0.00%    100.00% |           0      0.00%    100.00% |           0      0.00%    100.00%
system.ruby.outstanding_req_hist_seqr::total   2459143137                      
system.switch_cpus0.Branches                 48106621                       # Number of branches fetched
system.switch_cpus0.committedInsts          355714123                       # Number of instructions committed
system.switch_cpus0.committedOps            654294158                       # Number of ops (including micro ops) committed
system.switch_cpus0.dtb.rdAccesses           99831283                       # TLB accesses on read requests
system.switch_cpus0.dtb.rdMisses                61500                       # TLB misses on read requests
system.switch_cpus0.dtb.wrAccesses           14159128                       # TLB accesses on write requests
system.switch_cpus0.dtb.wrMisses                16608                       # TLB misses on write requests
system.switch_cpus0.idle_fraction            0.024966                       # Percentage of idle cycles
system.switch_cpus0.itb.rdAccesses                  0                       # TLB accesses on read requests
system.switch_cpus0.itb.rdMisses                    0                       # TLB misses on read requests
system.switch_cpus0.itb.wrAccesses          510601719                       # TLB accesses on write requests
system.switch_cpus0.itb.wrMisses                 4512                       # TLB misses on write requests
system.switch_cpus0.kern.inst.arm                   0                       # number of arm instructions executed
system.switch_cpus0.kern.inst.quiesce               0                       # number of quiesce instructions executed
system.switch_cpus0.not_idle_fraction        0.975034                       # Percentage of non-idle cycles
system.switch_cpus0.numCycles              1388310247                       # number of cpu cycles simulated
system.switch_cpus0.numWorkItemsCompleted            0                       # number of work items this cpu completed
system.switch_cpus0.numWorkItemsStarted             0                       # number of work items this cpu started
system.switch_cpus0.num_busy_cycles      1353649299.639784                       # Number of busy cycles
system.switch_cpus0.num_cc_register_reads    267754256                       # number of times the CC registers were read
system.switch_cpus0.num_cc_register_writes    151920224                       # number of times the CC registers were written
system.switch_cpus0.num_conditional_control_insts     44519286                       # number of instructions that are conditional controls
system.switch_cpus0.num_fp_alu_accesses     294517436                       # Number of float alu accesses
system.switch_cpus0.num_fp_insts            294517436                       # number of float instructions
system.switch_cpus0.num_fp_register_reads    354307858                       # number of times the floating registers were read
system.switch_cpus0.num_fp_register_writes    279058674                       # number of times the floating registers were written
system.switch_cpus0.num_func_calls            1434291                       # number of times a function call or return occured
system.switch_cpus0.num_idle_cycles      34660947.360216                       # Number of idle cycles
system.switch_cpus0.num_int_alu_accesses    433335291                       # Number of integer alu accesses
system.switch_cpus0.num_int_insts           433335291                       # number of integer instructions
system.switch_cpus0.num_int_register_reads    839902540                       # number of times the integer registers were read
system.switch_cpus0.num_int_register_writes    301324700                       # number of times the integer registers were written
system.switch_cpus0.num_load_insts           98582535                       # Number of load instructions
system.switch_cpus0.num_mem_refs            112707771                       # number of memory refs
system.switch_cpus0.num_store_insts          14125236                       # Number of store instructions
system.switch_cpus0.num_vec_alu_accesses            0                       # Number of vector alu accesses
system.switch_cpus0.num_vec_insts                   0                       # number of vector instructions
system.switch_cpus0.num_vec_register_reads            0                       # number of times the vector registers were read
system.switch_cpus0.num_vec_register_writes            0                       # number of times the vector registers were written
system.switch_cpus0.op_class::No_OpClass      1312256      0.20%      0.20% # Class of executed instruction
system.switch_cpus0.op_class::IntAlu        349839432     53.47%     53.67% # Class of executed instruction
system.switch_cpus0.op_class::IntMult         1251434      0.19%     53.86% # Class of executed instruction
system.switch_cpus0.op_class::IntDiv            36811      0.01%     53.87% # Class of executed instruction
system.switch_cpus0.op_class::FloatAdd       87912913     13.44%     67.30% # Class of executed instruction
system.switch_cpus0.op_class::FloatCmp              0      0.00%     67.30% # Class of executed instruction
system.switch_cpus0.op_class::FloatCvt            320      0.00%     67.30% # Class of executed instruction
system.switch_cpus0.op_class::FloatMult             0      0.00%     67.30% # Class of executed instruction
system.switch_cpus0.op_class::FloatMultAcc            0      0.00%     67.30% # Class of executed instruction
system.switch_cpus0.op_class::FloatDiv              0      0.00%     67.30% # Class of executed instruction
system.switch_cpus0.op_class::FloatMisc             0      0.00%     67.30% # Class of executed instruction
system.switch_cpus0.op_class::FloatSqrt             0      0.00%     67.30% # Class of executed instruction
system.switch_cpus0.op_class::SimdAdd             196      0.00%     67.30% # Class of executed instruction
system.switch_cpus0.op_class::SimdAddAcc            0      0.00%     67.30% # Class of executed instruction
system.switch_cpus0.op_class::SimdAlu         1294848      0.20%     67.50% # Class of executed instruction
system.switch_cpus0.op_class::SimdCmp               0      0.00%     67.50% # Class of executed instruction
system.switch_cpus0.op_class::SimdCvt             392      0.00%     67.50% # Class of executed instruction
system.switch_cpus0.op_class::SimdMisc         137275      0.02%     67.52% # Class of executed instruction
system.switch_cpus0.op_class::SimdMult              0      0.00%     67.52% # Class of executed instruction
system.switch_cpus0.op_class::SimdMultAcc            0      0.00%     67.52% # Class of executed instruction
system.switch_cpus0.op_class::SimdShift            78      0.00%     67.52% # Class of executed instruction
system.switch_cpus0.op_class::SimdShiftAcc            0      0.00%     67.52% # Class of executed instruction
system.switch_cpus0.op_class::SimdDiv               0      0.00%     67.52% # Class of executed instruction
system.switch_cpus0.op_class::SimdSqrt              0      0.00%     67.52% # Class of executed instruction
system.switch_cpus0.op_class::SimdFloatAdd     51002531      7.80%     75.32% # Class of executed instruction
system.switch_cpus0.op_class::SimdFloatAlu            0      0.00%     75.32% # Class of executed instruction
system.switch_cpus0.op_class::SimdFloatCmp            0      0.00%     75.32% # Class of executed instruction
system.switch_cpus0.op_class::SimdFloatCvt      9242659      1.41%     76.73% # Class of executed instruction
system.switch_cpus0.op_class::SimdFloatDiv      1363293      0.21%     76.94% # Class of executed instruction
system.switch_cpus0.op_class::SimdFloatMisc            0      0.00%     76.94% # Class of executed instruction
system.switch_cpus0.op_class::SimdFloatMult     37578808      5.74%     82.68% # Class of executed instruction
system.switch_cpus0.op_class::SimdFloatMultAcc            0      0.00%     82.68% # Class of executed instruction
system.switch_cpus0.op_class::SimdFloatSqrt       613149      0.09%     82.77% # Class of executed instruction
system.switch_cpus0.op_class::SimdReduceAdd            0      0.00%     82.77% # Class of executed instruction
system.switch_cpus0.op_class::SimdReduceAlu            0      0.00%     82.77% # Class of executed instruction
system.switch_cpus0.op_class::SimdReduceCmp            0      0.00%     82.77% # Class of executed instruction
system.switch_cpus0.op_class::SimdFloatReduceAdd            0      0.00%     82.77% # Class of executed instruction
system.switch_cpus0.op_class::SimdFloatReduceCmp            0      0.00%     82.77% # Class of executed instruction
system.switch_cpus0.op_class::SimdAes               0      0.00%     82.77% # Class of executed instruction
system.switch_cpus0.op_class::SimdAesMix            0      0.00%     82.77% # Class of executed instruction
system.switch_cpus0.op_class::SimdSha1Hash            0      0.00%     82.77% # Class of executed instruction
system.switch_cpus0.op_class::SimdSha1Hash2            0      0.00%     82.77% # Class of executed instruction
system.switch_cpus0.op_class::SimdSha256Hash            0      0.00%     82.77% # Class of executed instruction
[...]
system.mem_ctrls1.llc.tags.tagsinuse     47960.524316                       # Cycle average of tags in use
system.mem_ctrls1.llc.tags.total_refs               0                       # Total number of references to valid blocks.
system.mem_ctrls1.llc.tags.sampled_refs             0                       # Sample count of references to valid blocks.
system.mem_ctrls1.llc.tags.avg_refs               nan                       # Average number of references to valid blocks.
system.mem_ctrls1.llc.tags.warmup_cycle  98829567866500                       # Cycle when the warmup percentage was hit.
system.mem_ctrls1.llc.tags.occ_blocks::.ruby.dir_cntrl1 47960.524316                       # Average occupied blocks per requestor
system.mem_ctrls1.llc.tags.occ_percent::.ruby.dir_cntrl1     0.182955                       # Average percentage of cache occupancy
system.mem_ctrls1.llc.tags.occ_percent::total     0.182955                       # Average percentage of cache occupancy
system.mem_ctrls1.llc.tags.occ_task_id_blocks::1024        52668                       # Occupied blocks per task id
system.mem_ctrls1.llc.tags.age_task_id_blocks_1024::0           16                       # Occupied blocks per task id
system.mem_ctrls1.llc.tags.age_task_id_blocks_1024::1           58                       # Occupied blocks per task id
system.mem_ctrls1.llc.tags.age_task_id_blocks_1024::2           82                       # Occupied blocks per task id
system.mem_ctrls1.llc.tags.age_task_id_blocks_1024::4        52512                       # Occupied blocks per task id
system.mem_ctrls1.llc.tags.occ_task_id_percent::1024     0.200912                       # Percentage of cache occupancy per task id
system.mem_ctrls1.llc.tags.tag_accesses      19277260                       # Number of tag accesses
system.mem_ctrls1.llc.tags.data_accesses      1201537                       # Number of data accesses
system.mem_ctrls1.llc.tags.power_state.pwrStateResidencyTicks::UNDEFINED 99523737370001                       # Cumulative time (in ticks) in various power states
system.mem_ctrls1.rank1.actEnergy            56920080                       # Energy for activate commands per rank (pJ)
system.mem_ctrls1.rank1.preEnergy            30249945                       # Energy for precharge commands per rank (pJ)
system.mem_ctrls1.rank1.readEnergy          192737160                       # Energy for read commands per rank (pJ)
system.mem_ctrls1.rank1.writeEnergy                 0                       # Energy for write commands per rank (pJ)
system.mem_ctrls1.rank1.refreshEnergy    54796999920.000008                       # Energy for refresh commands per rank (pJ)
system.mem_ctrls1.rank1.actBackEnergy     17079984450                       # Energy for active background per rank (pJ)
system.mem_ctrls1.rank1.preBackEnergy    252177788160                       # Energy for precharge background per rank (pJ)
system.mem_ctrls1.rank1.actPowerDownEnergy            0                       # Energy for active power-down per rank (pJ)
system.mem_ctrls1.rank1.prePowerDownEnergy            0                       # Energy for precharge power-down per rank (pJ)
system.mem_ctrls1.rank1.selfRefreshEnergy            0                       # Energy for self refresh per rank (pJ)
system.mem_ctrls1.rank1.totalEnergy      324334679715                       # Total energy per rank (pJ)
system.mem_ctrls1.rank1.averagePower       467.226805                       # Core power per rank (mW)
system.mem_ctrls1.rank1.totalIdleTime               0                       # Total Idle time Per DRAM Rank
system.mem_ctrls1.rank1.memoryStateTime::IDLE 655444063251                       # Time in different power states
system.mem_ctrls1.rank1.memoryStateTime::REF  23179780000                       # Time in different power states
system.mem_ctrls1.rank1.memoryStateTime::SREF            0                       # Time in different power states
system.mem_ctrls1.rank1.memoryStateTime::PRE_PDN            0                       # Time in different power states
system.mem_ctrls1.rank1.memoryStateTime::ACT  15545832750                       # Time in different power states
system.mem_ctrls1.rank1.memoryStateTime::ACT_PDN            0                       # Time in different power states
system.mem_ctrls1.rank0.actEnergy            50115660                       # Energy for activate commands per rank (pJ)
system.mem_ctrls1.rank0.preEnergy            26633310                       # Energy for precharge commands per rank (pJ)
system.mem_ctrls1.rank0.readEnergy          183312360                       # Energy for read commands per rank (pJ)
system.mem_ctrls1.rank0.writeEnergy                 0                       # Energy for write commands per rank (pJ)
system.mem_ctrls1.rank0.refreshEnergy    54796999920.000008                       # Energy for refresh commands per rank (pJ)
system.mem_ctrls1.rank0.actBackEnergy     16444382010                       # Energy for active background per rank (pJ)
system.mem_ctrls1.rank0.preBackEnergy    252713208960                       # Energy for precharge background per rank (pJ)
system.mem_ctrls1.rank0.actPowerDownEnergy            0                       # Energy for active power-down per rank (pJ)
system.mem_ctrls1.rank0.prePowerDownEnergy            0                       # Energy for precharge power-down per rank (pJ)
system.mem_ctrls1.rank0.selfRefreshEnergy            0                       # Energy for self refresh per rank (pJ)
system.mem_ctrls1.rank0.totalEnergy      324214652220                       # Total energy per rank (pJ)
system.mem_ctrls1.rank0.averagePower       467.053897                       # Core power per rank (mW)
system.mem_ctrls1.rank0.totalIdleTime               0                       # Total Idle time Per DRAM Rank
system.mem_ctrls1.rank0.memoryStateTime::IDLE 656843722001                       # Time in different power states
system.mem_ctrls1.rank0.memoryStateTime::REF  23179780000                       # Time in different power states
system.mem_ctrls1.rank0.memoryStateTime::SREF            0                       # Time in different power states
system.mem_ctrls1.rank0.memoryStateTime::PRE_PDN            0                       # Time in different power states
system.mem_ctrls1.rank0.memoryStateTime::ACT  14146174000                       # Time in different power states
system.mem_ctrls1.rank0.memoryStateTime::ACT_PDN            0                       # Time in different power states
system.mem_ctrls1.power_state.pwrStateResidencyTicks::UNDEFINED 99523737370001                       # Cumulative time (in ticks) in various power states
system.cpu_voltage_domain.voltage                   1                       # Voltage in Volts
system.iobus.trans_dist::ReadReq                 1700                       # Transaction distribution
system.iobus.trans_dist::ReadResp                1700                       # Transaction distribution
system.iobus.trans_dist::WriteReq                6323                       # Transaction distribution
system.iobus.trans_dist::WriteResp               6323                       # Transaction distribution
system.iobus.pkt_count_system.pc.south_bridge.io_apic.int_master::system.ruby.l1_cntrl1.sequencer.pio-slave-port          470                       # Packet count per connected master and slave (bytes)
system.iobus.pkt_count_system.pc.south_bridge.io_apic.int_master::total          470                       # Packet count per connected master and slave (bytes)
system.iobus.pkt_count_system.ruby.l1_cntrl0.sequencer.mem-master-port::system.ruby.l1_cntrl0.sequencer.pio-slave-port         1606                       # Packet count per connected master and slave (bytes)
system.iobus.pkt_count_system.ruby.l1_cntrl0.sequencer.mem-master-port::system.ruby.l1_cntrl1.sequencer.pio-slave-port           24                       # Packet count per connected master and slave (bytes)
system.iobus.pkt_count_system.ruby.l1_cntrl0.sequencer.mem-master-port::system.ruby.l1_cntrl2.sequencer.pio-slave-port           22                       # Packet count per connected master and slave (bytes)
system.iobus.pkt_count_system.ruby.l1_cntrl0.sequencer.mem-master-port::system.ruby.l1_cntrl3.sequencer.pio-slave-port           22                       # Packet count per connected master and slave (bytes)
system.iobus.pkt_count_system.ruby.l1_cntrl0.sequencer.mem-master-port::total         1674                       # Packet count per connected master and slave (bytes)
system.iobus.pkt_count_system.ruby.l1_cntrl1.sequencer.mem-master-port::system.pc.south_bridge.ide.pio         2220                       # Packet count per connected master and slave (bytes)
system.iobus.pkt_count_system.ruby.l1_cntrl1.sequencer.mem-master-port::system.pc.com_1.pio          406                       # Packet count per connected master and slave (bytes)
system.iobus.pkt_count_system.ruby.l1_cntrl1.sequencer.mem-master-port::system.ruby.l1_cntrl0.sequencer.pio-slave-port            8                       # Packet count per connected master and slave (bytes)
system.iobus.pkt_count_system.ruby.l1_cntrl1.sequencer.mem-master-port::system.ruby.l1_cntrl1.sequencer.pio-slave-port         1938                       # Packet count per connected master and slave (bytes)
system.iobus.pkt_count_system.ruby.l1_cntrl1.sequencer.mem-master-port::system.ruby.l1_cntrl2.sequencer.pio-slave-port           16                       # Packet count per connected master and slave (bytes)
system.iobus.pkt_count_system.ruby.l1_cntrl1.sequencer.mem-master-port::system.ruby.l1_cntrl3.sequencer.pio-slave-port           28                       # Packet count per connected master and slave (bytes)
system.iobus.pkt_count_system.ruby.l1_cntrl1.sequencer.mem-master-port::total         4616                       # Packet count per connected master and slave (bytes)
system.iobus.pkt_count_system.ruby.l1_cntrl2.sequencer.mem-master-port::system.ruby.l1_cntrl0.sequencer.pio-slave-port            8                       # Packet count per connected master and slave (bytes)
system.iobus.pkt_count_system.ruby.l1_cntrl2.sequencer.mem-master-port::system.ruby.l1_cntrl1.sequencer.pio-slave-port            8                       # Packet count per connected master and slave (bytes)
system.iobus.pkt_count_system.ruby.l1_cntrl2.sequencer.mem-master-port::system.ruby.l1_cntrl2.sequencer.pio-slave-port         1486                       # Packet count per connected master and slave (bytes)
system.iobus.pkt_count_system.ruby.l1_cntrl2.sequencer.mem-master-port::system.ruby.l1_cntrl3.sequencer.pio-slave-port            4                       # Packet count per connected master and slave (bytes)
system.iobus.pkt_count_system.ruby.l1_cntrl2.sequencer.mem-master-port::total         1506                       # Packet count per connected master and slave (bytes)
system.iobus.pkt_count_system.ruby.l1_cntrl3.sequencer.mem-master-port::system.pc.south_bridge.ide.pio         6290                       # Packet count per connected master and slave (bytes)
system.iobus.pkt_count_system.ruby.l1_cntrl3.sequencer.mem-master-port::system.ruby.l1_cntrl0.sequencer.pio-slave-port            4                       # Packet count per connected master and slave (bytes)
system.iobus.pkt_count_system.ruby.l1_cntrl3.sequencer.mem-master-port::system.ruby.l1_cntrl1.sequencer.pio-slave-port            4                       # Packet count per connected master and slave (bytes)
system.iobus.pkt_count_system.ruby.l1_cntrl3.sequencer.mem-master-port::system.ruby.l1_cntrl2.sequencer.pio-slave-port            6                       # Packet count per connected master and slave (bytes)
system.iobus.pkt_count_system.ruby.l1_cntrl3.sequencer.mem-master-port::system.ruby.l1_cntrl3.sequencer.pio-slave-port         1476                       # Packet count per connected master and slave (bytes)
system.iobus.pkt_count_system.ruby.l1_cntrl3.sequencer.mem-master-port::total         7780                       # Packet count per connected master and slave (bytes)
system.iobus.pkt_count::total                   16046                       # Packet count per connected master and slave (bytes)
system.iobus.pkt_size_system.pc.south_bridge.io_apic.int_master::system.ruby.l1_cntrl1.sequencer.pio-slave-port          940                       # Cumulative packet size per connected master and slave (bytes)
system.iobus.pkt_size_system.pc.south_bridge.io_apic.int_master::total          940                       # Cumulative packet size per connected master and slave (bytes)
system.iobus.pkt_size_system.ruby.l1_cntrl0.sequencer.mem-master-port::system.ruby.l1_cntrl0.sequencer.pio-slave-port         3212                       # Cumulative packet size per connected master and slave (bytes)
system.iobus.pkt_size_system.ruby.l1_cntrl0.sequencer.mem-master-port::system.ruby.l1_cntrl1.sequencer.pio-slave-port           48                       # Cumulative packet size per connected master and slave (bytes)
system.iobus.pkt_size_system.ruby.l1_cntrl0.sequencer.mem-master-port::system.ruby.l1_cntrl2.sequencer.pio-slave-port           44                       # Cumulative packet size per connected master and slave (bytes)
system.iobus.pkt_size_system.ruby.l1_cntrl0.sequencer.mem-master-port::system.ruby.l1_cntrl3.sequencer.pio-slave-port           44                       # Cumulative packet size per connected master and slave (bytes)
system.iobus.pkt_size_system.ruby.l1_cntrl0.sequencer.mem-master-port::total         3348                       # Cumulative packet size per connected master and slave (bytes)
system.iobus.pkt_size_system.ruby.l1_cntrl1.sequencer.mem-master-port::system.pc.south_bridge.ide.pio         1110                       # Cumulative packet size per connected master and slave (bytes)
system.iobus.pkt_size_system.ruby.l1_cntrl1.sequencer.mem-master-port::system.pc.com_1.pio          203                       # Cumulative packet size per connected master and slave (bytes)
system.iobus.pkt_size_system.ruby.l1_cntrl1.sequencer.mem-master-port::system.ruby.l1_cntrl0.sequencer.pio-slave-port           16                       # Cumulative packet size per connected master and slave (bytes)
system.iobus.pkt_size_system.ruby.l1_cntrl1.sequencer.mem-master-port::system.ruby.l1_cntrl1.sequencer.pio-slave-port         3876                       # Cumulative packet size per connected master and slave (bytes)
system.iobus.pkt_size_system.ruby.l1_cntrl1.sequencer.mem-master-port::system.ruby.l1_cntrl2.sequencer.pio-slave-port           32                       # Cumulative packet size per connected master and slave (bytes)
system.iobus.pkt_size_system.ruby.l1_cntrl1.sequencer.mem-master-port::system.ruby.l1_cntrl3.sequencer.pio-slave-port           56                       # Cumulative packet size per connected master and slave (bytes)
system.iobus.pkt_size_system.ruby.l1_cntrl1.sequencer.mem-master-port::total         5293                       # Cumulative packet size per connected master and slave (bytes)
system.iobus.pkt_size_system.ruby.l1_cntrl2.sequencer.mem-master-port::system.ruby.l1_cntrl0.sequencer.pio-slave-port           16                       # Cumulative packet size per connected master and slave (bytes)
system.iobus.pkt_size_system.ruby.l1_cntrl2.sequencer.mem-master-port::system.ruby.l1_cntrl1.sequencer.pio-slave-port           16                       # Cumulative packet size per connected master and slave (bytes)
system.iobus.pkt_size_system.ruby.l1_cntrl2.sequencer.mem-master-port::system.ruby.l1_cntrl2.sequencer.pio-slave-port         2972                       # Cumulative packet size per connected master and slave (bytes)
system.iobus.pkt_size_system.ruby.l1_cntrl2.sequencer.mem-master-port::system.ruby.l1_cntrl3.sequencer.pio-slave-port            8                       # Cumulative packet size per connected master and slave (bytes)
system.iobus.pkt_size_system.ruby.l1_cntrl2.sequencer.mem-master-port::total         3012                       # Cumulative packet size per connected master and slave (bytes)
system.iobus.pkt_size_system.ruby.l1_cntrl3.sequencer.mem-master-port::system.pc.south_bridge.ide.pio         3700                       # Cumulative packet size per connected master and slave (bytes)
system.iobus.pkt_size_system.ruby.l1_cntrl3.sequencer.mem-master-port::system.ruby.l1_cntrl0.sequencer.pio-slave-port            8                       # Cumulative packet size per connected master and slave (bytes)
system.iobus.pkt_size_system.ruby.l1_cntrl3.sequencer.mem-master-port::system.ruby.l1_cntrl1.sequencer.pio-slave-port            8                       # Cumulative packet size per connected master and slave (bytes)
system.iobus.pkt_size_system.ruby.l1_cntrl3.sequencer.mem-master-port::system.ruby.l1_cntrl2.sequencer.pio-slave-port           12                       # Cumulative packet size per connected master and slave (bytes)
system.iobus.pkt_size_system.ruby.l1_cntrl3.sequencer.mem-master-port::system.ruby.l1_cntrl3.sequencer.pio-slave-port         2952                       # Cumulative packet size per connected master and slave (bytes)
system.iobus.pkt_size_system.ruby.l1_cntrl3.sequencer.mem-master-port::total         6680                       # Cumulative packet size per connected master and slave (bytes)
system.iobus.pkt_size::total                    19273                       # Cumulative packet size per connected master and slave (bytes)
system.iobus.reqLayer2.occupancy              7169500                       # Layer occupancy (ticks)
system.iobus.reqLayer2.utilization                0.0                       # Layer utilization (%)
system.iobus.power_state.pwrStateResidencyTicks::UNDEFINED 99523737370001                       # Cumulative time (in ticks) in various power states
system.iobus.reqLayer19.occupancy             1893784                       # Layer occupancy (ticks)
system.iobus.reqLayer19.utilization               0.0                       # Layer utilization (%)
system.iobus.reqLayer17.occupancy             1954297                       # Layer occupancy (ticks)
system.iobus.reqLayer17.utilization               0.0                       # Layer utilization (%)
system.iobus.reqLayer12.occupancy              265500                       # Layer occupancy (ticks)
system.iobus.reqLayer12.utilization               0.0                       # Layer utilization (%)
system.iobus.reqLayer18.occupancy             2996980                       # Layer occupancy (ticks)
system.iobus.reqLayer18.utilization               0.0                       # Layer utilization (%)
system.iobus.respLayer9.occupancy             5003500                       # Layer occupancy (ticks)
system.iobus.respLayer9.utilization               0.0                       # Layer utilization (%)
system.iobus.respLayer5.occupancy             3707500                       # Layer occupancy (ticks)
system.iobus.respLayer5.utilization               0.0                       # Layer utilization (%)
system.iobus.respLayer7.occupancy             1132500                       # Layer occupancy (ticks)
system.iobus.respLayer7.utilization               0.0                       # Layer utilization (%)
system.iobus.respLayer0.occupancy              394815                       # Layer occupancy (ticks)
system.iobus.respLayer0.utilization               0.0                       # Layer utilization (%)
system.iobus.respLayer3.occupancy             1270000                       # Layer occupancy (ticks)
system.iobus.respLayer3.utilization               0.0                       # Layer utilization (%)
system.iobus.reqLayer20.occupancy             1874825                       # Layer occupancy (ticks)
system.iobus.reqLayer20.utilization               0.0                       # Layer utilization (%)

---------- End Simulation Statistics   ----------
