
---------- Begin Simulation Statistics ----------
final_tick                               100575027849001                       # Number of ticks from beginning of simulation (restored from checkpoints and never reset)
host_inst_rate                                 809659                       # Simulator instruction rate (inst/s)
host_mem_usage                                1725388                       # Number of bytes of host memory used
host_op_rate                                   975826                       # Simulator op (including micro ops) rate (op/s)
host_seconds                                  8315.78                       # Real time elapsed on the host
host_tick_rate                              131245533                       # Simulator tick rate (ticks/s)
sim_freq                                 1000000000000                       # Frequency of simulated ticks
sim_insts                                  6732946968                       # Number of instructions simulated
sim_ops                                    8114754420                       # Number of ops (including micro ops) simulated
sim_seconds                                  1.091409                       # Number of seconds simulated
sim_ticks                                1091409389001                       # Number of ticks simulated
system.cpu0.committedInsts                          0                       # Number of instructions committed
system.cpu0.dtb.rdAccesses                          0                       # TLB accesses on read requests
system.cpu0.dtb.rdMisses                            0                       # TLB misses on read requests
system.cpu0.dtb.wrAccesses                          0                       # TLB accesses on write requests
system.cpu0.dtb.wrMisses                            0                       # TLB misses on write requests
system.cpu0.itb.rdAccesses                          0                       # TLB accesses on read requests
system.cpu0.itb.rdMisses                            0                       # TLB misses on read requests
system.cpu0.itb.wrAccesses                          0                       # TLB accesses on write requests
system.cpu0.itb.wrMisses                            0                       # TLB misses on write requests
system.cpu0.kern.inst.arm                           0                       # number of arm instructions executed
system.cpu0.kern.inst.quiesce                       0                       # number of quiesce instructions executed
system.cpu0.numCoalescedMMIO                        0                       # number of coalesced memory mapped IO requests
system.cpu0.numCycles                               0                       # number of cpu cycles simulated
system.cpu0.numExitSignal                           0                       # exits due to signal delivery
system.cpu0.numHalt                                 0                       # number of VM exits due to wait for interrupt instructions
system.cpu0.numHypercalls                           0                       # number of hypercalls
system.cpu0.numIO                                   0                       # number of VM exits due to legacy IO
system.cpu0.numInterrupts                           0                       # number of interrupts delivered
system.cpu0.numMMIO                                 0                       # number of VM exits due to memory mapped IO
system.cpu0.numVMExits                              0                       # total number of KVM exits
system.cpu0.numVMHalfEntries                        0                       # number of KVM entries to finalize pending operations
system.cpu0.numWorkItemsCompleted                   0                       # number of work items this cpu completed
system.cpu0.numWorkItemsStarted                     0                       # number of work items this cpu started
system.cpu1.committedInsts                          0                       # Number of instructions committed
system.cpu1.dtb.rdAccesses                          0                       # TLB accesses on read requests
system.cpu1.dtb.rdMisses                            0                       # TLB misses on read requests
system.cpu1.dtb.wrAccesses                          0                       # TLB accesses on write requests
system.cpu1.dtb.wrMisses                            0                       # TLB misses on write requests
system.cpu1.itb.rdAccesses                          0                       # TLB accesses on read requests
system.cpu1.itb.rdMisses                            0                       # TLB misses on read requests
system.cpu1.itb.wrAccesses                          0                       # TLB accesses on write requests
system.cpu1.itb.wrMisses                            0                       # TLB misses on write requests
system.cpu1.kern.inst.arm                           0                       # number of arm instructions executed
system.cpu1.kern.inst.quiesce                       0                       # number of quiesce instructions executed
system.cpu1.numCoalescedMMIO                        0                       # number of coalesced memory mapped IO requests
system.cpu1.numCycles                               0                       # number of cpu cycles simulated
system.cpu1.numExitSignal                           0                       # exits due to signal delivery
system.cpu1.numHalt                                 0                       # number of VM exits due to wait for interrupt instructions
system.cpu1.numHypercalls                           0                       # number of hypercalls
system.cpu1.numIO                                   0                       # number of VM exits due to legacy IO
system.cpu1.numInterrupts                           0                       # number of interrupts delivered
system.cpu1.numMMIO                                 0                       # number of VM exits due to memory mapped IO
system.cpu1.numVMExits                              0                       # total number of KVM exits
system.cpu1.numVMHalfEntries                        0                       # number of KVM entries to finalize pending operations
system.cpu1.numWorkItemsCompleted                   0                       # number of work items this cpu completed
system.cpu1.numWorkItemsStarted                     0                       # number of work items this cpu started
system.cpu2.committedInsts                          0                       # Number of instructions committed
system.cpu2.dtb.rdAccesses                          0                       # TLB accesses on read requests
system.cpu2.dtb.rdMisses                            0                       # TLB misses on read requests
system.cpu2.dtb.wrAccesses                          0                       # TLB accesses on write requests
system.cpu2.dtb.wrMisses                            0                       # TLB misses on write requests
system.cpu2.itb.rdAccesses                          0                       # TLB accesses on read requests
system.cpu2.itb.rdMisses                            0                       # TLB misses on read requests
system.cpu2.itb.wrAccesses                          0                       # TLB accesses on write requests
system.cpu2.itb.wrMisses                            0                       # TLB misses on write requests
system.cpu2.kern.inst.arm                           0                       # number of arm instructions executed
system.cpu2.kern.inst.quiesce                       0                       # number of quiesce instructions executed
system.cpu2.numCoalescedMMIO                        0                       # number of coalesced memory mapped IO requests
system.cpu2.numCycles                               0                       # number of cpu cycles simulated
system.cpu2.numExitSignal                           0                       # exits due to signal delivery
system.cpu2.numHalt                                 0                       # number of VM exits due to wait for interrupt instructions
system.cpu2.numHypercalls                           0                       # number of hypercalls
system.cpu2.numIO                                   0                       # number of VM exits due to legacy IO
system.cpu2.numInterrupts                           0                       # number of interrupts delivered
system.cpu2.numMMIO                                 0                       # number of VM exits due to memory mapped IO
system.cpu2.numVMExits                              0                       # total number of KVM exits
system.cpu2.numVMHalfEntries                        0                       # number of KVM entries to finalize pending operations
system.cpu2.numWorkItemsCompleted                   0                       # number of work items this cpu completed
system.cpu2.numWorkItemsStarted                     0                       # number of work items this cpu started
system.cpu3.committedInsts                          0                       # Number of instructions committed
system.cpu3.dtb.rdAccesses                          0                       # TLB accesses on read requests
system.cpu3.dtb.rdMisses                            0                       # TLB misses on read requests
system.cpu3.dtb.wrAccesses                          0                       # TLB accesses on write requests
system.cpu3.dtb.wrMisses                            0                       # TLB misses on write requests
system.cpu3.itb.rdAccesses                          0                       # TLB accesses on read requests
system.cpu3.itb.rdMisses                            0                       # TLB misses on read requests
system.cpu3.itb.wrAccesses                          0                       # TLB accesses on write requests
system.cpu3.itb.wrMisses                            0                       # TLB misses on write requests
system.cpu3.kern.inst.arm                           0                       # number of arm instructions executed
system.cpu3.kern.inst.quiesce                       0                       # number of quiesce instructions executed
system.cpu3.numCoalescedMMIO                        0                       # number of coalesced memory mapped IO requests
system.cpu3.numCycles                               0                       # number of cpu cycles simulated
system.cpu3.numExitSignal                           0                       # exits due to signal delivery
system.cpu3.numHalt                                 0                       # number of VM exits due to wait for interrupt instructions
system.cpu3.numHypercalls                           0                       # number of hypercalls
system.cpu3.numIO                                   0                       # number of VM exits due to legacy IO
system.cpu3.numInterrupts                           0                       # number of interrupts delivered
system.cpu3.numMMIO                                 0                       # number of VM exits due to memory mapped IO
system.cpu3.numVMExits                              0                       # total number of KVM exits
system.cpu3.numVMHalfEntries                        0                       # number of KVM entries to finalize pending operations
system.cpu3.numWorkItemsCompleted                   0                       # number of work items this cpu completed
system.cpu3.numWorkItemsStarted                     0                       # number of work items this cpu started
system.pc.south_bridge.ide.disks.dma_read_bytes            0                       # Number of bytes transfered via DMA reads (not PRD).
system.pc.south_bridge.ide.disks.dma_read_full_pages            0                       # Number of full page size DMA reads (not PRD).
system.pc.south_bridge.ide.disks.dma_read_txs            0                       # Number of DMA read transactions (not PRD).
system.pc.south_bridge.ide.disks.dma_write_bytes       425984                       # Number of bytes transfered via DMA writes.
system.pc.south_bridge.ide.disks.dma_write_full_pages          104                       # Number of full page size DMA writes.
system.pc.south_bridge.ide.disks.dma_write_txs          104                       # Number of DMA write transactions.
system.ruby.DMA_Controller.I.allocI_load |           9    100.00%    100.00% |           0      0.00%    100.00%
system.ruby.DMA_Controller.I.allocI_load::total            9                      
system.ruby.DMA_Controller.I.allocI_store |        6656    100.00%    100.00% |           0      0.00%    100.00%
system.ruby.DMA_Controller.I.allocI_store::total         6656                      
system.ruby.DMA_Controller.I.deallocfwdfrom_in |        5641    100.00%    100.00% |           0      0.00%    100.00%
system.ruby.DMA_Controller.I.deallocfwdfrom_in::total         5641                      
system.ruby.DMA_Controller.M.allocTBE    |        5689    100.00%    100.00% |           0      0.00%    100.00%
system.ruby.DMA_Controller.M.allocTBE::total         5689                      
system.ruby.DMA_Controller.M.externalstoreMrespfrom_in |        6656    100.00%    100.00% |           0      0.00%    100.00%
system.ruby.DMA_Controller.M.externalstoreMrespfrom_in::total         6656                      
system.ruby.DMA_Controller.M_evict.Stallmandatory_in |       82195    100.00%    100.00% |           0      0.00%    100.00%
system.ruby.DMA_Controller.M_evict.Stallmandatory_in::total        82195                      
system.ruby.DMA_Controller.S.SloadSEvent |          16    100.00%    100.00% |           0      0.00%    100.00%
system.ruby.DMA_Controller.S.SloadSEvent::total           16                      
system.ruby.DMA_Controller.S.allocTBE    |          68    100.00%    100.00% |           0      0.00%    100.00%
system.ruby.DMA_Controller.S.allocTBE::total           68                      
system.ruby.DMA_Controller.S.deallocTBE  |         115    100.00%    100.00% |           0      0.00%    100.00%
system.ruby.DMA_Controller.S.deallocTBE::total          115                      
system.ruby.DMA_Controller.S.externalloadSrespfrom_in |           9    100.00%    100.00% |           0      0.00%    100.00%
system.ruby.DMA_Controller.S.externalloadSrespfrom_in::total            9                      
system.ruby.DMA_Controller.S_evict.Stallmandatory_in |         557    100.00%    100.00% |           0      0.00%    100.00%
system.ruby.DMA_Controller.S_evict.Stallmandatory_in::total          557                      
system.ruby.DMA_Controller.SloadSEvent   |          16    100.00%    100.00% |           0      0.00%    100.00%
system.ruby.DMA_Controller.SloadSEvent::total           16                      
system.ruby.DMA_Controller.Stallmandatory_in |       82752    100.00%    100.00% |           0      0.00%    100.00%
system.ruby.DMA_Controller.Stallmandatory_in::total        82752                      
system.ruby.DMA_Controller.allocI_load   |           9    100.00%    100.00% |           0      0.00%    100.00%
system.ruby.DMA_Controller.allocI_load::total            9                      
system.ruby.DMA_Controller.allocI_store  |        6656    100.00%    100.00% |           0      0.00%    100.00%
system.ruby.DMA_Controller.allocI_store::total         6656                      
system.ruby.DMA_Controller.allocTBE      |        5757    100.00%    100.00% |           0      0.00%    100.00%
system.ruby.DMA_Controller.allocTBE::total         5757                      
system.ruby.DMA_Controller.deallocTBE    |         115    100.00%    100.00% |           0      0.00%    100.00%
system.ruby.DMA_Controller.deallocTBE::total          115                      
system.ruby.DMA_Controller.deallocfwdfrom_in |        5641    100.00%    100.00% |           0      0.00%    100.00%
system.ruby.DMA_Controller.deallocfwdfrom_in::total         5641                      
system.ruby.DMA_Controller.externalloadSrespfrom_in |           9    100.00%    100.00% |           0      0.00%    100.00%
system.ruby.DMA_Controller.externalloadSrespfrom_in::total            9                      
system.ruby.DMA_Controller.externalstoreMrespfrom_in |        6656    100.00%    100.00% |           0      0.00%    100.00%
system.ruby.DMA_Controller.externalstoreMrespfrom_in::total         6656                      
system.ruby.Directory_Controller.I.allocTBE |     2797437     24.72%     24.72% |     2895350     25.59%     50.31% |     2812233     24.85%     75.17% |     2809984     24.83%    100.00%
system.ruby.Directory_Controller.I.allocTBE::total     11315004                      
system.ruby.Directory_Controller.I.deallocTBE |     2796505     24.72%     24.72% |     2894403     25.59%     50.31% |     2811301     24.85%     75.17% |     2809047     24.83%    100.00%
system.ruby.Directory_Controller.I.deallocTBE::total     11311256                      
system.ruby.Directory_Controller.I_GetSL1C1C1_0.Stallreqto_in |          75     15.37%     15.37% |         305     62.50%     77.87% |          47      9.63%     87.50% |          61     12.50%    100.00%
system.ruby.Directory_Controller.I_GetSL1C1C1_0.Stallreqto_in::total          488                      
system.ruby.Directory_Controller.M.allocTBE |     1699033     24.97%     24.97% |     1702667     25.03%     50.00% |     1695764     24.93%     74.93% |     1705776     25.07%    100.00%
system.ruby.Directory_Controller.M.allocTBE::total      6803240                      
system.ruby.Directory_Controller.M.deallocTBE |     1699416     24.97%     24.97% |     1703058     25.03%     50.00% |     1696146     24.93%     74.93% |     1706160     25.07%    100.00%
system.ruby.Directory_Controller.M.deallocTBE::total      6804780                      
system.ruby.Directory_Controller.M_GetM.Progress |         398     22.20%     22.20% |         537     29.95%     52.15% |         700     39.04%     91.19% |         158      8.81%    100.00%
system.ruby.Directory_Controller.M_GetM.Progress::total         1793                      
system.ruby.Directory_Controller.M_GetM.Stallreqto_in |           2     66.67%     66.67% |           0      0.00%     66.67% |           1     33.33%    100.00% |           0      0.00%    100.00%
system.ruby.Directory_Controller.M_GetM.Stallreqto_in::total            3                      
system.ruby.Directory_Controller.M_GetS.Progress |        2080     27.59%     27.59% |        1943     25.77%     53.36% |        2035     26.99%     80.34% |        1482     19.66%    100.00%
system.ruby.Directory_Controller.M_GetS.Progress::total         7540                      
system.ruby.Directory_Controller.M_GetS.Stallreqto_in |           0      0.00%      0.00% |           3     25.00%     25.00% |           7     58.33%     83.33% |           2     16.67%    100.00%
system.ruby.Directory_Controller.M_GetS.Stallreqto_in::total           12                      
system.ruby.Directory_Controller.M_GetS_WBL1C1C1_0.Stallreqto_in |         166     34.58%     34.58% |          68     14.17%     48.75% |         168     35.00%     83.75% |          78     16.25%    100.00%
system.ruby.Directory_Controller.M_GetS_WBL1C1C1_0.Stallreqto_in::total          480                      
system.ruby.Directory_Controller.M_PutML1C1C1_0.Stallreqto_in |           3    100.00%    100.00% |           0      0.00%    100.00% |           0      0.00%    100.00% |           0      0.00%    100.00%
system.ruby.Directory_Controller.M_PutML1C1C1_0.Stallreqto_in::total            3                      
system.ruby.Directory_Controller.Progress |        4796     31.96%     31.96% |        3668     24.44%     56.40% |        3826     25.49%     81.89% |        2718     18.11%    100.00%
system.ruby.Directory_Controller.Progress::total        15008                      
system.ruby.Directory_Controller.S.allocTBE |     2203869     24.37%     24.37% |     2422295     26.78%     51.15% |     2218420     24.53%     75.68% |     2199133     24.32%    100.00%
system.ruby.Directory_Controller.S.allocTBE::total      9043717                      
system.ruby.Directory_Controller.S.deallocTBE |     2204418     24.37%     24.37% |     2422851     26.78%     51.15% |     2218970     24.53%     75.68% |     2199686     24.32%    100.00%
system.ruby.Directory_Controller.S.deallocTBE::total      9045925                      
system.ruby.Directory_Controller.S_GetM.Progress |        2318     40.85%     40.85% |        1188     20.93%     61.78% |        1091     19.22%     81.00% |        1078     19.00%    100.00%
system.ruby.Directory_Controller.S_GetM.Progress::total         5675                      
system.ruby.Directory_Controller.S_GetM.Stallreqto_in |           4     21.05%     21.05% |           3     15.79%     36.84% |           8     42.11%     78.95% |           4     21.05%    100.00%
system.ruby.Directory_Controller.S_GetM.Stallreqto_in::total           19                      
system.ruby.Directory_Controller.S_GetM.allocTBE |        3500     32.51%     32.51% |        2574     23.91%     56.41% |        2637     24.49%     80.90% |        2056     19.10%    100.00%
system.ruby.Directory_Controller.S_GetM.allocTBE::total        10767                      
system.ruby.Directory_Controller.S_GetM.deallocTBE |        3500     32.51%     32.51% |        2574     23.91%     56.41% |        2637     24.49%     80.90% |        2056     19.10%    100.00%
system.ruby.Directory_Controller.S_GetM.deallocTBE::total        10767                      
system.ruby.Directory_Controller.S_GetML1C1C1_0.Stallreqto_in |           2    100.00%    100.00% |           0      0.00%    100.00% |           0      0.00%    100.00% |           0      0.00%    100.00%
system.ruby.Directory_Controller.S_GetML1C1C1_0.Stallreqto_in::total            2                      
system.ruby.Directory_Controller.S_GetML1C1C1_1.Stallreqto_in |           0      0.00%      0.00% |           0      0.00%      0.00% |           0      0.00%      0.00% |           4    100.00%    100.00%
system.ruby.Directory_Controller.S_GetML1C1C1_1.Stallreqto_in::total            4                      
system.ruby.Directory_Controller.S_GetML1C1C1_2.Stallreqto_in |           4    100.00%    100.00% |           0      0.00%    100.00% |           0      0.00%    100.00% |           0      0.00%    100.00%
system.ruby.Directory_Controller.S_GetML1C1C1_2.Stallreqto_in::total            4                      
system.ruby.Directory_Controller.S_GetSL1C1C1_0.Stallreqto_in |         314     24.23%     24.23% |         501     38.66%     62.89% |         243     18.75%     81.64% |         238     18.36%    100.00%
system.ruby.Directory_Controller.S_GetSL1C1C1_0.Stallreqto_in::total         1296                      
system.ruby.Directory_Controller.Stallreqto_in |         570     24.66%     24.66% |         880     38.08%     62.74% |         474     20.51%     83.25% |         387     16.75%    100.00%
system.ruby.Directory_Controller.Stallreqto_in::total         2311                      
system.ruby.Directory_Controller.allocTBE |     6703839     24.67%     24.67% |     7022886     25.85%     50.52% |     6729054     24.76%     75.28% |     6716949     24.72%    100.00%
system.ruby.Directory_Controller.allocTBE::total     27172728                      
system.ruby.Directory_Controller.deallocTBE |     6703839     24.67%     24.67% |     7022886     25.85%     50.52% |     6729054     24.76%     75.28% |     6716949     24.72%    100.00%
system.ruby.Directory_Controller.deallocTBE::total     27172728                      
system.ruby.IFETCH.hit_latency_hist_seqr::bucket_size            1                      
system.ruby.IFETCH.hit_latency_hist_seqr::max_bucket            9                      
system.ruby.IFETCH.hit_latency_hist_seqr::samples   2619664415                      
system.ruby.IFETCH.hit_latency_hist_seqr |  2619664415    100.00%    100.00% |           0      0.00%    100.00% |           0      0.00%    100.00% |           0      0.00%    100.00% |           0      0.00%    100.00% |           0      0.00%    100.00% |           0      0.00%    100.00% |           0      0.00%    100.00% |           0      0.00%    100.00% |           0      0.00%    100.00%
system.ruby.IFETCH.hit_latency_hist_seqr::total   2619664415                      
system.ruby.IFETCH.latency_hist_seqr::bucket_size            1                      
system.ruby.IFETCH.latency_hist_seqr::max_bucket            9                      
system.ruby.IFETCH.latency_hist_seqr::samples   2621880887                      
system.ruby.IFETCH.latency_hist_seqr     |  2621880887    100.00%    100.00% |           0      0.00%    100.00% |           0      0.00%    100.00% |           0      0.00%    100.00% |           0      0.00%    100.00% |           0      0.00%    100.00% |           0      0.00%    100.00% |           0      0.00%    100.00% |           0      0.00%    100.00% |           0      0.00%    100.00%
system.ruby.IFETCH.latency_hist_seqr::total   2621880887                      
system.ruby.IFETCH.miss_latency_hist_seqr::bucket_size            1                      
system.ruby.IFETCH.miss_latency_hist_seqr::max_bucket            9                      
system.ruby.IFETCH.miss_latency_hist_seqr::samples      2216472                      
system.ruby.IFETCH.miss_latency_hist_seqr |     2216472    100.00%    100.00% |           0      0.00%    100.00% |           0      0.00%    100.00% |           0      0.00%    100.00% |           0      0.00%    100.00% |           0      0.00%    100.00% |           0      0.00%    100.00% |           0      0.00%    100.00% |           0      0.00%    100.00% |           0      0.00%    100.00%
system.ruby.IFETCH.miss_latency_hist_seqr::total      2216472                      
system.ruby.L1Cache_Controller.I.allocI_load |     1580635     21.56%     21.56% |     2109560     28.78%     50.34% |     1517736     20.71%     71.05% |     2122090     28.95%    100.00%
system.ruby.L1Cache_Controller.I.allocI_load::total      7330021                      
system.ruby.L1Cache_Controller.I.allocI_store |     1481326     25.93%     25.93% |     1420876     24.87%     50.79% |     1059329     18.54%     69.33% |     1752219     30.67%    100.00%
system.ruby.L1Cache_Controller.I.allocI_store::total      5713750                      
system.ruby.L1Cache_Controller.I.deallocfwdfrom_in |     3060956     23.47%     23.47% |     3529421     27.07%     50.54% |     2576081     19.76%     70.30% |     3873285     29.70%    100.00%
system.ruby.L1Cache_Controller.I.deallocfwdfrom_in::total     13039743                      
system.ruby.L1Cache_Controller.I_store.Progress |        5187     95.03%     95.03% |          67      1.23%     96.26% |          62      1.14%     97.40% |         142      2.60%    100.00%
system.ruby.L1Cache_Controller.I_store.Progress::total         5458                      
system.ruby.L1Cache_Controller.I_store.Stallfwdfrom_in |           3     60.00%     60.00% |           0      0.00%     60.00% |           2     40.00%    100.00% |           0      0.00%    100.00%
system.ruby.L1Cache_Controller.I_store.Stallfwdfrom_in::total            5                      
system.ruby.L1Cache_Controller.M.MloadMEvent |   108019717     29.51%     29.51% |    82921174     22.65%     52.17% |    95986568     26.22%     78.39% |    79104962     21.61%    100.00%
system.ruby.L1Cache_Controller.M.MloadMEvent::total    366032421                      
system.ruby.L1Cache_Controller.M.MstoreMEvent |    30719078     26.29%     26.29% |    29501706     25.25%     51.55% |    26590647     22.76%     74.31% |    30015137     25.69%    100.00%
system.ruby.L1Cache_Controller.M.MstoreMEvent::total    116826568                      
system.ruby.L1Cache_Controller.M.allocTBE |     1681118     24.73%     24.73% |     1734078     25.51%     50.24% |     1302764     19.17%     69.41% |     2079588     30.59%    100.00%
system.ruby.L1Cache_Controller.M.allocTBE::total      6797548                      
system.ruby.L1Cache_Controller.M.externalstoreMrespfrom_in |     1681271     24.73%     24.73% |     1734199     25.51%     50.24% |     1302895     19.17%     69.41% |     2079756     30.59%    100.00%
system.ruby.L1Cache_Controller.M.externalstoreMrespfrom_in::total      6798121                      
system.ruby.L1Cache_Controller.M_evict.Stallmandatory_in |         292     16.91%     16.91% |         419     24.26%     41.17% |         383     22.18%     63.35% |         633     36.65%    100.00%
system.ruby.L1Cache_Controller.M_evict.Stallmandatory_in::total         1727                      
system.ruby.L1Cache_Controller.M_evict_x_I.Progress |           0      0.00%      0.00% |           0      0.00%      0.00% |           1    100.00%    100.00% |           0      0.00%    100.00%
system.ruby.L1Cache_Controller.M_evict_x_I.Progress::total            1                      
system.ruby.L1Cache_Controller.M_evict_x_I.Stallmandatory_in |           0      0.00%      0.00% |           0      0.00%      0.00% |           3    100.00%    100.00% |           0      0.00%    100.00%
system.ruby.L1Cache_Controller.M_evict_x_I.Stallmandatory_in::total            3                      
system.ruby.L1Cache_Controller.MloadMEvent |   108019717     29.51%     29.51% |    82921174     22.65%     52.17% |    95986568     26.22%     78.39% |    79104962     21.61%    100.00%
system.ruby.L1Cache_Controller.MloadMEvent::total    366032421                      
system.ruby.L1Cache_Controller.MstoreMEvent |    30719078     26.29%     26.29% |    29501706     25.25%     51.55% |    26590647     22.76%     74.31% |    30015137     25.69%    100.00%
system.ruby.L1Cache_Controller.MstoreMEvent::total    116826568                      
system.ruby.L1Cache_Controller.Progress  |      211858     19.25%     19.25% |      314741     28.59%     47.84% |      244872     22.24%     70.08% |      329347     29.92%    100.00%
system.ruby.L1Cache_Controller.Progress::total      1100818                      
system.ruby.L1Cache_Controller.S.SloadSEvent |   739407275     26.46%     26.46% |   630123305     22.55%     49.00% |   798464163     28.57%     77.57% |   626864140     22.43%    100.00%
system.ruby.L1Cache_Controller.S.SloadSEvent::total   2794858883                      
system.ruby.L1Cache_Controller.S.allocTBE |     1582473     21.58%     21.58% |     2110241     28.77%     50.35% |     1518153     20.70%     71.05% |     2123124     28.95%    100.00%
system.ruby.L1Cache_Controller.S.allocTBE::total      7333991                      
system.ruby.L1Cache_Controller.S.deallocTBE |        2690     36.23%     36.23% |        1575     21.21%     57.44% |        1270     17.10%     74.55% |        1890     25.45%    100.00%
system.ruby.L1Cache_Controller.S.deallocTBE::total         7425                      
system.ruby.L1Cache_Controller.S.externalloadSrespfrom_in |     1580635     21.56%     21.56% |     2109560     28.78%     50.34% |     1517736     20.71%     71.05% |     2122090     28.95%    100.00%
system.ruby.L1Cache_Controller.S.externalloadSrespfrom_in::total      7330021                      
system.ruby.L1Cache_Controller.S_evict.Stallmandatory_in |         225     20.93%     20.93% |         265     24.65%     45.58% |         241     22.42%     68.00% |         344     32.00%    100.00%
system.ruby.L1Cache_Controller.S_evict.Stallmandatory_in::total         1075                      
system.ruby.L1Cache_Controller.S_evict_x_I.Progress |           0      0.00%      0.00% |           2    100.00%    100.00% |           0      0.00%    100.00% |           0      0.00%    100.00%
system.ruby.L1Cache_Controller.S_evict_x_I.Progress::total            2                      
system.ruby.L1Cache_Controller.S_evict_x_I.Stallmandatory_in |           0      0.00%      0.00% |           6    100.00%    100.00% |           0      0.00%    100.00% |           0      0.00%    100.00%
system.ruby.L1Cache_Controller.S_evict_x_I.Stallmandatory_in::total            6                      
system.ruby.L1Cache_Controller.S_store.Progress |      206671     18.87%     18.87% |      314672     28.73%     47.60% |      244809     22.35%     69.95% |      329205     30.05%    100.00%
system.ruby.L1Cache_Controller.S_store.Progress::total      1095357                      
system.ruby.L1Cache_Controller.S_store.Stallfwdfrom_in |           5    100.00%    100.00% |           0      0.00%    100.00% |           0      0.00%    100.00% |           0      0.00%    100.00%
system.ruby.L1Cache_Controller.S_store.Stallfwdfrom_in::total            5                      
system.ruby.L1Cache_Controller.SloadSEvent |   739407275     26.46%     26.46% |   630123305     22.55%     49.00% |   798464163     28.57%     77.57% |   626864140     22.43%    100.00%
system.ruby.L1Cache_Controller.SloadSEvent::total   2794858883                      
system.ruby.L1Cache_Controller.Stallfwdfrom_in |           8     80.00%     80.00% |           0      0.00%     80.00% |           2     20.00%    100.00% |           0      0.00%    100.00%
system.ruby.L1Cache_Controller.Stallfwdfrom_in::total           10                      
system.ruby.L1Cache_Controller.Stallmandatory_in |         517     18.39%     18.39% |         690     24.55%     42.94% |         627     22.31%     65.24% |         977     34.76%    100.00%
system.ruby.L1Cache_Controller.Stallmandatory_in::total         2811                      
system.ruby.L1Cache_Controller.allocI_load |     1580635     21.56%     21.56% |     2109560     28.78%     50.34% |     1517736     20.71%     71.05% |     2122090     28.95%    100.00%
system.ruby.L1Cache_Controller.allocI_load::total      7330021                      
system.ruby.L1Cache_Controller.allocI_store |     1481326     25.93%     25.93% |     1420876     24.87%     50.79% |     1059329     18.54%     69.33% |     1752219     30.67%    100.00%
system.ruby.L1Cache_Controller.allocI_store::total      5713750                      
system.ruby.L1Cache_Controller.allocTBE  |     3263591     23.09%     23.09% |     3844319     27.20%     50.30% |     2820917     19.96%     70.26% |     4202712     29.74%    100.00%
system.ruby.L1Cache_Controller.allocTBE::total     14131539                      
system.ruby.L1Cache_Controller.deallocTBE |        2690     36.23%     36.23% |        1575     21.21%     57.44% |        1270     17.10%     74.55% |        1890     25.45%    100.00%
system.ruby.L1Cache_Controller.deallocTBE::total         7425                      
system.ruby.L1Cache_Controller.deallocfwdfrom_in |     3060956     23.47%     23.47% |     3529421     27.07%     50.54% |     2576081     19.76%     70.30% |     3873285     29.70%    100.00%
system.ruby.L1Cache_Controller.deallocfwdfrom_in::total     13039743                      
system.ruby.L1Cache_Controller.externalloadSrespfrom_in |     1580635     21.56%     21.56% |     2109560     28.78%     50.34% |     1517736     20.71%     71.05% |     2122090     28.95%    100.00%
system.ruby.L1Cache_Controller.externalloadSrespfrom_in::total      7330021                      
system.ruby.L1Cache_Controller.externalstoreMrespfrom_in |     1681271     24.73%     24.73% |     1734199     25.51%     50.24% |     1302895     19.17%     69.41% |     2079756     30.59%    100.00%
system.ruby.L1Cache_Controller.externalstoreMrespfrom_in::total      6798121                      
system.ruby.LD.hit_latency_hist_seqr::bucket_size            1                      
system.ruby.LD.hit_latency_hist_seqr::max_bucket            9                      
system.ruby.LD.hit_latency_hist_seqr::samples    541226889                      
system.ruby.LD.hit_latency_hist_seqr     |   541226889    100.00%    100.00% |           0      0.00%    100.00% |           0      0.00%    100.00% |           0      0.00%    100.00% |           0      0.00%    100.00% |           0      0.00%    100.00% |           0      0.00%    100.00% |           0      0.00%    100.00% |           0      0.00%    100.00% |           0      0.00%    100.00%
system.ruby.LD.hit_latency_hist_seqr::total    541226889                      
system.ruby.LD.latency_hist_seqr::bucket_size            1                      
system.ruby.LD.latency_hist_seqr::max_bucket            9                      
system.ruby.LD.latency_hist_seqr::samples    546340438                      
system.ruby.LD.latency_hist_seqr         |   546340438    100.00%    100.00% |           0      0.00%    100.00% |           0      0.00%    100.00% |           0      0.00%    100.00% |           0      0.00%    100.00% |           0      0.00%    100.00% |           0      0.00%    100.00% |           0      0.00%    100.00% |           0      0.00%    100.00% |           0      0.00%    100.00%
system.ruby.LD.latency_hist_seqr::total     546340438                      
system.ruby.LD.miss_latency_hist_seqr::bucket_size            1                      
system.ruby.LD.miss_latency_hist_seqr::max_bucket            9                      
system.ruby.LD.miss_latency_hist_seqr::samples      5113549                      
system.ruby.LD.miss_latency_hist_seqr    |     5113549    100.00%    100.00% |           0      0.00%    100.00% |           0      0.00%    100.00% |           0      0.00%    100.00% |           0      0.00%    100.00% |           0      0.00%    100.00% |           0      0.00%    100.00% |           0      0.00%    100.00% |           0      0.00%    100.00% |           0      0.00%    100.00%
system.ruby.LD.miss_latency_hist_seqr::total      5113549                      
system.ruby.Locked_RMW_Read.hit_latency_hist_seqr::bucket_size            1                      
system.ruby.Locked_RMW_Read.hit_latency_hist_seqr::max_bucket            9                      
system.ruby.Locked_RMW_Read.hit_latency_hist_seqr::samples        76975                      
system.ruby.Locked_RMW_Read.hit_latency_hist_seqr |       76975    100.00%    100.00% |           0      0.00%    100.00% |           0      0.00%    100.00% |           0      0.00%    100.00% |           0      0.00%    100.00% |           0      0.00%    100.00% |           0      0.00%    100.00% |           0      0.00%    100.00% |           0      0.00%    100.00% |           0      0.00%    100.00%
system.ruby.Locked_RMW_Read.hit_latency_hist_seqr::total        76975                      
system.ruby.Locked_RMW_Read.latency_hist_seqr::bucket_size            1                      
system.ruby.Locked_RMW_Read.latency_hist_seqr::max_bucket            9                      
system.ruby.Locked_RMW_Read.latency_hist_seqr::samples       106056                      
system.ruby.Locked_RMW_Read.latency_hist_seqr |      106056    100.00%    100.00% |           0      0.00%    100.00% |           0      0.00%    100.00% |           0      0.00%    100.00% |           0      0.00%    100.00% |           0      0.00%    100.00% |           0      0.00%    100.00% |           0      0.00%    100.00% |           0      0.00%    100.00% |           0      0.00%    100.00%
system.ruby.Locked_RMW_Read.latency_hist_seqr::total       106056                      
system.ruby.Locked_RMW_Read.miss_latency_hist_seqr::bucket_size            1                      
system.ruby.Locked_RMW_Read.miss_latency_hist_seqr::max_bucket            9                      
system.ruby.Locked_RMW_Read.miss_latency_hist_seqr::samples        29081                      
system.ruby.Locked_RMW_Read.miss_latency_hist_seqr |       29081    100.00%    100.00% |           0      0.00%    100.00% |           0      0.00%    100.00% |           0      0.00%    100.00% |           0      0.00%    100.00% |           0      0.00%    100.00% |           0      0.00%    100.00% |           0      0.00%    100.00% |           0      0.00%    100.00% |           0      0.00%    100.00%
system.ruby.Locked_RMW_Read.miss_latency_hist_seqr::total        29081                      
system.ruby.Locked_RMW_Write.hit_latency_hist_seqr::bucket_size            1                      
system.ruby.Locked_RMW_Write.hit_latency_hist_seqr::max_bucket            9                      
system.ruby.Locked_RMW_Write.hit_latency_hist_seqr::samples       106056                      
system.ruby.Locked_RMW_Write.hit_latency_hist_seqr |      106056    100.00%    100.00% |           0      0.00%    100.00% |           0      0.00%    100.00% |           0      0.00%    100.00% |           0      0.00%    100.00% |           0      0.00%    100.00% |           0      0.00%    100.00% |           0      0.00%    100.00% |           0      0.00%    100.00% |           0      0.00%    100.00%
system.ruby.Locked_RMW_Write.hit_latency_hist_seqr::total       106056                      
system.ruby.Locked_RMW_Write.latency_hist_seqr::bucket_size            1                      
system.ruby.Locked_RMW_Write.latency_hist_seqr::max_bucket            9                      
system.ruby.Locked_RMW_Write.latency_hist_seqr::samples       106056                      
system.ruby.Locked_RMW_Write.latency_hist_seqr |      106056    100.00%    100.00% |           0      0.00%    100.00% |           0      0.00%    100.00% |           0      0.00%    100.00% |           0      0.00%    100.00% |           0      0.00%    100.00% |           0      0.00%    100.00% |           0      0.00%    100.00% |           0      0.00%    100.00% |           0      0.00%    100.00%
system.ruby.Locked_RMW_Write.latency_hist_seqr::total       106056                      
system.ruby.RMW_Read.hit_latency_hist_seqr::bucket_size            1                      
system.ruby.RMW_Read.hit_latency_hist_seqr::max_bucket            9                      
system.ruby.RMW_Read.hit_latency_hist_seqr::samples      2693845                      
system.ruby.RMW_Read.hit_latency_hist_seqr |     2693845    100.00%    100.00% |           0      0.00%    100.00% |           0      0.00%    100.00% |           0      0.00%    100.00% |           0      0.00%    100.00% |           0      0.00%    100.00% |           0      0.00%    100.00% |           0      0.00%    100.00% |           0      0.00%    100.00% |           0      0.00%    100.00%
system.ruby.RMW_Read.hit_latency_hist_seqr::total      2693845                      
system.ruby.RMW_Read.latency_hist_seqr::bucket_size            1                      
system.ruby.RMW_Read.latency_hist_seqr::max_bucket            9                      
system.ruby.RMW_Read.latency_hist_seqr::samples      2755978                      
system.ruby.RMW_Read.latency_hist_seqr   |     2755978    100.00%    100.00% |           0      0.00%    100.00% |           0      0.00%    100.00% |           0      0.00%    100.00% |           0      0.00%    100.00% |           0      0.00%    100.00% |           0      0.00%    100.00% |           0      0.00%    100.00% |           0      0.00%    100.00% |           0      0.00%    100.00%
system.ruby.RMW_Read.latency_hist_seqr::total      2755978                      
system.ruby.RMW_Read.miss_latency_hist_seqr::bucket_size            1                      
system.ruby.RMW_Read.miss_latency_hist_seqr::max_bucket            9                      
system.ruby.RMW_Read.miss_latency_hist_seqr::samples        62133                      
system.ruby.RMW_Read.miss_latency_hist_seqr |       62133    100.00%    100.00% |           0      0.00%    100.00% |           0      0.00%    100.00% |           0      0.00%    100.00% |           0      0.00%    100.00% |           0      0.00%    100.00% |           0      0.00%    100.00% |           0      0.00%    100.00% |           0      0.00%    100.00% |           0      0.00%    100.00%
system.ruby.RMW_Read.miss_latency_hist_seqr::total        62133                      
system.ruby.ST.hit_latency_hist_seqr::bucket_size            1                      
system.ruby.ST.hit_latency_hist_seqr::max_bucket            9                      
system.ruby.ST.hit_latency_hist_seqr::samples    113949692                      
system.ruby.ST.hit_latency_hist_seqr     |   113949692    100.00%    100.00% |           0      0.00%    100.00% |           0      0.00%    100.00% |           0      0.00%    100.00% |           0      0.00%    100.00% |           0      0.00%    100.00% |           0      0.00%    100.00% |           0      0.00%    100.00% |           0      0.00%    100.00% |           0      0.00%    100.00%
system.ruby.ST.hit_latency_hist_seqr::total    113949692                      
system.ruby.ST.latency_hist_seqr::bucket_size            1                      
system.ruby.ST.latency_hist_seqr::max_bucket            9                      
system.ruby.ST.latency_hist_seqr::samples    120656599                      
system.ruby.ST.latency_hist_seqr         |   120656599    100.00%    100.00% |           0      0.00%    100.00% |           0      0.00%    100.00% |           0      0.00%    100.00% |           0      0.00%    100.00% |           0      0.00%    100.00% |           0      0.00%    100.00% |           0      0.00%    100.00% |           0      0.00%    100.00% |           0      0.00%    100.00%
system.ruby.ST.latency_hist_seqr::total     120656599                      
system.ruby.ST.miss_latency_hist_seqr::bucket_size            1                      
system.ruby.ST.miss_latency_hist_seqr::max_bucket            9                      
system.ruby.ST.miss_latency_hist_seqr::samples      6706907                      
system.ruby.ST.miss_latency_hist_seqr    |     6706907    100.00%    100.00% |           0      0.00%    100.00% |           0      0.00%    100.00% |           0      0.00%    100.00% |           0      0.00%    100.00% |           0      0.00%    100.00% |           0      0.00%    100.00% |           0      0.00%    100.00% |           0      0.00%    100.00% |           0      0.00%    100.00%
system.ruby.ST.miss_latency_hist_seqr::total      6706907                      
system.ruby.dir_cntrl0.fwdFrom.avg_buf_msgs     0.008844                       # Average number of messages in buffer
system.ruby.dir_cntrl0.fwdFrom.avg_stall_time  2999.989135                       # Average number of cycles messages are stalled in this MB
system.ruby.dir_cntrl0.reqTo.avg_buf_msgs     0.003072                       # Average number of messages in buffer
system.ruby.dir_cntrl0.reqTo.avg_stall_time  5191.087799                       # Average number of cycles messages are stalled in this MB
system.ruby.dir_cntrl0.requestToMemory.avg_buf_msgs     0.002375                       # Average number of messages in buffer
system.ruby.dir_cntrl0.requestToMemory.avg_stall_time   499.999997                       # Average number of cycles messages are stalled in this MB
system.ruby.dir_cntrl0.respFrom.avg_buf_msgs     0.009595                       # Average number of messages in buffer
system.ruby.dir_cntrl0.respFrom.avg_stall_time  3000.517793                       # Average number of cycles messages are stalled in this MB
system.ruby.dir_cntrl0.respTo.avg_buf_msgs     0.000004                       # Average number of messages in buffer
system.ruby.dir_cntrl0.respTo.avg_stall_time  6230.406302                       # Average number of cycles messages are stalled in this MB
system.ruby.dir_cntrl0.responseFromMemory.avg_buf_msgs     0.002379                       # Average number of messages in buffer
system.ruby.dir_cntrl0.responseFromMemory.avg_stall_time   499.999959                       # Average number of cycles messages are stalled in this MB
system.ruby.dir_cntrl1.fwdFrom.avg_buf_msgs     0.009279                       # Average number of messages in buffer
system.ruby.dir_cntrl1.fwdFrom.avg_stall_time  2999.951861                       # Average number of cycles messages are stalled in this MB
system.ruby.dir_cntrl1.reqTo.avg_buf_msgs     0.003220                       # Average number of messages in buffer
system.ruby.dir_cntrl1.reqTo.avg_stall_time  5246.480734                       # Average number of cycles messages are stalled in this MB
system.ruby.dir_cntrl1.requestToMemory.avg_buf_msgs     0.002451                       # Average number of messages in buffer
system.ruby.dir_cntrl1.requestToMemory.avg_stall_time   499.999948                       # Average number of cycles messages are stalled in this MB
system.ruby.dir_cntrl1.respFrom.avg_buf_msgs     0.010037                       # Average number of messages in buffer
system.ruby.dir_cntrl1.respFrom.avg_stall_time  3000.535874                       # Average number of cycles messages are stalled in this MB
system.ruby.dir_cntrl1.respTo.avg_buf_msgs     0.000003                       # Average number of messages in buffer
system.ruby.dir_cntrl1.respTo.avg_stall_time  6570.384561                       # Average number of cycles messages are stalled in this MB
system.ruby.dir_cntrl1.responseFromMemory.avg_buf_msgs     0.002455                       # Average number of messages in buffer
system.ruby.dir_cntrl1.responseFromMemory.avg_stall_time   499.999910                       # Average number of cycles messages are stalled in this MB
system.ruby.dir_cntrl2.fwdFrom.avg_buf_msgs     0.008881                       # Average number of messages in buffer
system.ruby.dir_cntrl2.fwdFrom.avg_stall_time  2999.959871                       # Average number of cycles messages are stalled in this MB
system.ruby.dir_cntrl2.reqTo.avg_buf_msgs     0.003084                       # Average number of messages in buffer
system.ruby.dir_cntrl2.reqTo.avg_stall_time  5400.920942                       # Average number of cycles messages are stalled in this MB
system.ruby.dir_cntrl2.requestToMemory.avg_buf_msgs     0.002379                       # Average number of messages in buffer
system.ruby.dir_cntrl2.requestToMemory.avg_stall_time   499.999850                       # Average number of cycles messages are stalled in this MB
system.ruby.dir_cntrl2.respFrom.avg_buf_msgs     0.009647                       # Average number of messages in buffer
system.ruby.dir_cntrl2.respFrom.avg_stall_time  3001.193681                       # Average number of cycles messages are stalled in this MB
system.ruby.dir_cntrl2.respTo.avg_buf_msgs     0.000003                       # Average number of messages in buffer
system.ruby.dir_cntrl2.respTo.avg_stall_time  6287.001803                       # Average number of cycles messages are stalled in this MB
system.ruby.dir_cntrl2.responseFromMemory.avg_buf_msgs     0.002383                       # Average number of messages in buffer
system.ruby.dir_cntrl2.responseFromMemory.avg_stall_time   499.999811                       # Average number of cycles messages are stalled in this MB
system.ruby.dir_cntrl3.fwdFrom.avg_buf_msgs     0.008860                       # Average number of messages in buffer
system.ruby.dir_cntrl3.fwdFrom.avg_stall_time  2999.993081                       # Average number of cycles messages are stalled in this MB
system.ruby.dir_cntrl3.reqTo.avg_buf_msgs     0.003078                       # Average number of messages in buffer
system.ruby.dir_cntrl3.reqTo.avg_stall_time  5396.397632                       # Average number of cycles messages are stalled in this MB
system.ruby.dir_cntrl3.requestToMemory.avg_buf_msgs     0.002382                       # Average number of messages in buffer
system.ruby.dir_cntrl3.requestToMemory.avg_stall_time   499.999997                       # Average number of cycles messages are stalled in this MB
system.ruby.dir_cntrl3.respFrom.avg_buf_msgs     0.009643                       # Average number of messages in buffer
system.ruby.dir_cntrl3.respFrom.avg_stall_time  3001.368078                       # Average number of cycles messages are stalled in this MB
system.ruby.dir_cntrl3.respTo.avg_buf_msgs     0.000002                       # Average number of messages in buffer
system.ruby.dir_cntrl3.respTo.avg_stall_time  5902.045403                       # Average number of cycles messages are stalled in this MB
system.ruby.dir_cntrl3.responseFromMemory.avg_buf_msgs     0.002386                       # Average number of messages in buffer
system.ruby.dir_cntrl3.responseFromMemory.avg_stall_time   499.999959                       # Average number of cycles messages are stalled in this MB
system.ruby.dma_cntrl0.cache.demand_accesses            0                       # Number of cache demand accesses
system.ruby.dma_cntrl0.cache.demand_hits            0                       # Number of cache demand hits
system.ruby.dma_cntrl0.cache.demand_misses            0                       # Number of cache demand misses
system.ruby.dma_cntrl0.fully_busy_cycles        15346                       # cycles for which number of transistions == max transitions
system.ruby.dma_cntrl0.fwdFrom.avg_buf_msgs     0.000003                       # Average number of messages in buffer
system.ruby.dma_cntrl0.fwdFrom.avg_stall_time  6559.276538                       # Average number of cycles messages are stalled in this MB
system.ruby.dma_cntrl0.mandatoryQueue.avg_buf_msgs     0.000467                       # Average number of messages in buffer
system.ruby.dma_cntrl0.mandatoryQueue.avg_stall_time 167829.947170                       # Average number of cycles messages are stalled in this MB
system.ruby.dma_cntrl0.reqTo.avg_buf_msgs     0.000745                       # Average number of messages in buffer
system.ruby.dma_cntrl0.reqTo.avg_stall_time  9993.416937                       # Average number of cycles messages are stalled in this MB
system.ruby.dma_cntrl0.respFrom.avg_buf_msgs     0.000003                       # Average number of messages in buffer
system.ruby.dma_cntrl0.respFrom.avg_stall_time 108939.080529                       # Average number of cycles messages are stalled in this MB
system.ruby.dma_cntrl0.respTo.avg_buf_msgs     0.000000                       # Average number of messages in buffer
system.ruby.dma_cntrl0.respTo.avg_stall_time   998.947081                       # Average number of cycles messages are stalled in this MB
system.ruby.hit_latency_hist_seqr::bucket_size            1                      
system.ruby.hit_latency_hist_seqr::max_bucket            9                      
system.ruby.hit_latency_hist_seqr::samples   3277717872                      
system.ruby.hit_latency_hist_seqr        |  3277717872    100.00%    100.00% |           0      0.00%    100.00% |           0      0.00%    100.00% |           0      0.00%    100.00% |           0      0.00%    100.00% |           0      0.00%    100.00% |           0      0.00%    100.00% |           0      0.00%    100.00% |           0      0.00%    100.00% |           0      0.00%    100.00%
system.ruby.hit_latency_hist_seqr::total   3277717872                      
system.ruby.io_controller.cache.demand_accesses            0                       # Number of cache demand accesses
system.ruby.io_controller.cache.demand_hits            0                       # Number of cache demand hits
system.ruby.io_controller.cache.demand_misses            0                       # Number of cache demand misses
system.ruby.l1_cntrl0.cache.demand_accesses            0                       # Number of cache demand accesses
system.ruby.l1_cntrl0.cache.demand_hits             0                       # Number of cache demand hits
system.ruby.l1_cntrl0.cache.demand_misses            0                       # Number of cache demand misses
system.ruby.l1_cntrl0.fully_busy_cycles             5                       # cycles for which number of transistions == max transitions
system.ruby.l1_cntrl0.fwdFrom.avg_buf_msgs     0.620061                       # Average number of messages in buffer
system.ruby.l1_cntrl0.fwdFrom.avg_stall_time  6480.741465                       # Average number of cycles messages are stalled in this MB
system.ruby.l1_cntrl0.mandatoryQueue.avg_buf_msgs     0.449066                       # Average number of messages in buffer
system.ruby.l1_cntrl0.mandatoryQueue.avg_stall_time  2531.747537                       # Average number of cycles messages are stalled in this MB
system.ruby.l1_cntrl0.reqTo.avg_buf_msgs     0.002897                       # Average number of messages in buffer
system.ruby.l1_cntrl0.reqTo.avg_stall_time   500.026395                       # Average number of cycles messages are stalled in this MB
system.ruby.l1_cntrl0.respFrom.avg_buf_msgs     0.001500                       # Average number of messages in buffer
system.ruby.l1_cntrl0.respFrom.avg_stall_time 16526.609514                       # Average number of cycles messages are stalled in this MB
system.ruby.l1_cntrl0.respTo.avg_buf_msgs     0.000006                       # Average number of messages in buffer
system.ruby.l1_cntrl0.respTo.avg_stall_time   999.960894                       # Average number of cycles messages are stalled in this MB
system.ruby.l1_cntrl1.cache.demand_accesses            0                       # Number of cache demand accesses
system.ruby.l1_cntrl1.cache.demand_hits             0                       # Number of cache demand hits
system.ruby.l1_cntrl1.cache.demand_misses            0                       # Number of cache demand misses
system.ruby.l1_cntrl1.fully_busy_cycles             2                       # cycles for which number of transistions == max transitions
system.ruby.l1_cntrl1.fwdFrom.avg_buf_msgs     0.999785                       # Average number of messages in buffer
system.ruby.l1_cntrl1.fwdFrom.avg_stall_time  6533.220150                       # Average number of cycles messages are stalled in this MB
system.ruby.l1_cntrl1.mandatoryQueue.avg_buf_msgs     0.392259                       # Average number of messages in buffer
system.ruby.l1_cntrl1.mandatoryQueue.avg_stall_time  2776.136612                       # Average number of cycles messages are stalled in this MB
system.ruby.l1_cntrl1.reqTo.avg_buf_msgs     0.003376                       # Average number of messages in buffer
system.ruby.l1_cntrl1.reqTo.avg_stall_time   500.015079                       # Average number of cycles messages are stalled in this MB
system.ruby.l1_cntrl1.respFrom.avg_buf_msgs     0.001762                       # Average number of messages in buffer
system.ruby.l1_cntrl1.respFrom.avg_stall_time 16557.945253                       # Average number of cycles messages are stalled in this MB
system.ruby.l1_cntrl1.respTo.avg_buf_msgs     0.000009                       # Average number of messages in buffer
system.ruby.l1_cntrl1.respTo.avg_stall_time   999.867283                       # Average number of cycles messages are stalled in this MB
system.ruby.l1_cntrl2.cache.demand_accesses            0                       # Number of cache demand accesses
system.ruby.l1_cntrl2.cache.demand_hits             0                       # Number of cache demand hits
system.ruby.l1_cntrl2.cache.demand_misses            0                       # Number of cache demand misses
system.ruby.l1_cntrl2.fully_busy_cycles             3                       # cycles for which number of transistions == max transitions
system.ruby.l1_cntrl2.fwdFrom.avg_buf_msgs     0.966973                       # Average number of messages in buffer
system.ruby.l1_cntrl2.fwdFrom.avg_stall_time  6561.891962                       # Average number of cycles messages are stalled in this MB
system.ruby.l1_cntrl2.mandatoryQueue.avg_buf_msgs     0.460333                       # Average number of messages in buffer
system.ruby.l1_cntrl2.mandatoryQueue.avg_stall_time  2141.979604                       # Average number of cycles messages are stalled in this MB
system.ruby.l1_cntrl2.reqTo.avg_buf_msgs     0.002471                       # Average number of messages in buffer
system.ruby.l1_cntrl2.reqTo.avg_stall_time   499.858366                       # Average number of cycles messages are stalled in this MB
system.ruby.l1_cntrl2.respFrom.avg_buf_msgs     0.001293                       # Average number of messages in buffer
system.ruby.l1_cntrl2.respFrom.avg_stall_time 16563.615824                       # Average number of cycles messages are stalled in this MB
system.ruby.l1_cntrl2.respTo.avg_buf_msgs     0.000010                       # Average number of messages in buffer
system.ruby.l1_cntrl2.respTo.avg_stall_time   999.675261                       # Average number of cycles messages are stalled in this MB
system.ruby.l1_cntrl3.cache.demand_accesses            0                       # Number of cache demand accesses
system.ruby.l1_cntrl3.cache.demand_hits             0                       # Number of cache demand hits
system.ruby.l1_cntrl3.cache.demand_misses            0                       # Number of cache demand misses
system.ruby.l1_cntrl3.fully_busy_cycles             7                       # cycles for which number of transistions == max transitions
system.ruby.l1_cntrl3.fwdFrom.avg_buf_msgs     0.001775                       # Average number of messages in buffer
system.ruby.l1_cntrl3.fwdFrom.avg_stall_time  6581.812588                       # Average number of cycles messages are stalled in this MB
system.ruby.l1_cntrl3.mandatoryQueue.avg_buf_msgs     0.395745                       # Average number of messages in buffer
system.ruby.l1_cntrl3.mandatoryQueue.avg_stall_time  2995.604028                       # Average number of cycles messages are stalled in this MB
system.ruby.l1_cntrl3.reqTo.avg_buf_msgs     0.003698                       # Average number of messages in buffer
system.ruby.l1_cntrl3.reqTo.avg_stall_time   500.013175                       # Average number of cycles messages are stalled in this MB
system.ruby.l1_cntrl3.respFrom.avg_buf_msgs     0.001926                       # Average number of messages in buffer
system.ruby.l1_cntrl3.respFrom.avg_stall_time 16489.743652                       # Average number of cycles messages are stalled in this MB
system.ruby.l1_cntrl3.respTo.avg_buf_msgs     0.000010                       # Average number of messages in buffer
system.ruby.l1_cntrl3.respTo.avg_stall_time   999.812680                       # Average number of cycles messages are stalled in this MB
system.ruby.latency_hist_seqr::bucket_size            1                      
system.ruby.latency_hist_seqr::max_bucket            9                      
system.ruby.latency_hist_seqr::samples     3291846014                      
system.ruby.latency_hist_seqr            |  3291846014    100.00%    100.00% |           0      0.00%    100.00% |           0      0.00%    100.00% |           0      0.00%    100.00% |           0      0.00%    100.00% |           0      0.00%    100.00% |           0      0.00%    100.00% |           0      0.00%    100.00% |           0      0.00%    100.00% |           0      0.00%    100.00%
system.ruby.latency_hist_seqr::total       3291846014                      
system.ruby.miss_latency_hist_seqr::bucket_size            1                      
system.ruby.miss_latency_hist_seqr::max_bucket            9                      
system.ruby.miss_latency_hist_seqr::samples     14128142                      
system.ruby.miss_latency_hist_seqr       |    14128142    100.00%    100.00% |           0      0.00%    100.00% |           0      0.00%    100.00% |           0      0.00%    100.00% |           0      0.00%    100.00% |           0      0.00%    100.00% |           0      0.00%    100.00% |           0      0.00%    100.00% |           0      0.00%    100.00% |           0      0.00%    100.00%
system.ruby.miss_latency_hist_seqr::total     14128142                      
system.ruby.network.average_flit_latency    16.661836                      
system.ruby.network.average_flit_network_latency    12.592368                      
system.ruby.network.average_flit_queueing_latency     4.069469                      
system.ruby.network.average_flit_vnet_latency |   15.019329                       |    4.997300                       |   11.256994                      
system.ruby.network.average_flit_vqueue_latency |    6.006848                       |    6.000000                       |    1.083290                      
system.ruby.network.average_hops             0.998985                      
system.ruby.network.average_packet_latency    16.238672                      
system.ruby.network.average_packet_network_latency    12.706199                      
system.ruby.network.average_packet_queueing_latency     3.532474                      
system.ruby.network.average_packet_vnet_latency |   24.983758                       |    4.997300                       |   10.002582                      
system.ruby.network.average_packet_vqueue_latency |    5.998079                       |    6.000000                       |    1.059773                      
system.ruby.network.avg_link_utilization     0.189787                      
system.ruby.network.avg_vc_load          |    0.072657     38.28%     38.28% |    0.008299      4.37%     42.66% |    0.008112      4.27%     46.93% |    0.008108      4.27%     51.20% |    0.013436      7.08%     58.28% |    0.001500      0.79%     59.07% |    0.001495      0.79%     59.86% |    0.001495      0.79%     60.65% |    0.055442     29.21%     89.86% |    0.006793      3.58%     93.44% |    0.006220      3.28%     96.72% |    0.006231      3.28%    100.00%
system.ruby.network.avg_vc_load::total       0.189787                      
system.ruby.network.ext_in_link_utilization    138136922                      
system.ruby.network.ext_out_link_utilization    138136922                      
system.ruby.network.flit_network_latency |  1062563657                       |    65229405                       |   611677831                      
system.ruby.network.flit_queueing_latency |   424962927                       |    78317575                       |    58863361                      
system.ruby.network.flits_injected       |    70746412     51.21%     51.21% |    13052929      9.45%     60.66% |    54337581     39.34%    100.00%
system.ruby.network.flits_injected::total    138136922                      
system.ruby.network.flits_received       |    70746412     51.21%     51.21% |    13052929      9.45%     60.66% |    54337581     39.34%    100.00%
system.ruby.network.flits_received::total    138136922                      
system.ruby.network.int_link_utilization    137996702                      
system.ruby.network.packet_network_latency |   354195332                       |    65229405                       |   271689734                      
system.ruby.network.packet_queueing_latency |    85034915                       |    78317575                       |    28785509                      
system.ruby.network.packets_injected     |    14177024     26.06%     26.06% |    13052929     24.00%     50.06% |    27161961     49.94%    100.00%
system.ruby.network.packets_injected::total     54391914                      
system.ruby.network.packets_received     |    14177024     26.06%     26.06% |    13052929     24.00%     50.06% |    27161961     49.94%    100.00%
system.ruby.network.packets_received::total     54391914                      
system.ruby.network.routers0.buffer_reads     66224307                      
system.ruby.network.routers0.buffer_writes     66224307                      
system.ruby.network.routers0.crossbar_activity     66224307                      
system.ruby.network.routers0.sw_input_arbiter_activity     66307377                      
system.ruby.network.routers0.sw_output_arbiter_activity     66224307                      
system.ruby.network.routers1.buffer_reads     72077117                      
system.ruby.network.routers1.buffer_writes     72077117                      
system.ruby.network.routers1.crossbar_activity     72077117                      
system.ruby.network.routers1.sw_input_arbiter_activity     72153562                      
system.ruby.network.routers1.sw_output_arbiter_activity     72077117                      
system.ruby.network.routers2.buffer_reads     63952666                      
system.ruby.network.routers2.buffer_writes     63952666                      
system.ruby.network.routers2.crossbar_activity     63952666                      
system.ruby.network.routers2.sw_input_arbiter_activity     64020636                      
system.ruby.network.routers2.sw_output_arbiter_activity     63952666                      
system.ruby.network.routers3.buffer_reads     73879534                      
system.ruby.network.routers3.buffer_writes     73879534                      
system.ruby.network.routers3.crossbar_activity     73879534                      
system.ruby.network.routers3.sw_input_arbiter_activity     73954844                      
system.ruby.network.routers3.sw_output_arbiter_activity     73879534                      
system.ruby.outstanding_req_hist_seqr::bucket_size            1                      
system.ruby.outstanding_req_hist_seqr::max_bucket            9                      
system.ruby.outstanding_req_hist_seqr::samples   3291846014                      
system.ruby.outstanding_req_hist_seqr::mean     1.001178                      
system.ruby.outstanding_req_hist_seqr::gmean     1.000817                      
system.ruby.outstanding_req_hist_seqr::stdev     0.034307                      
system.ruby.outstanding_req_hist_seqr    |           0      0.00%      0.00% |  3287966947     99.88%     99.88% |     3879067      0.12%    100.00% |           0      0.00%    100.00% |           0      0.00%    100.00% |           0      0.00%    100.00% |           0      0.00%    100.00% |           0      0.00%    100.00% |           0      0.00%    100.00% |           0      0.00%    100.00%
system.ruby.outstanding_req_hist_seqr::total   3291846014                      
system.switch_cpus0.Branches                 90027797                       # Number of branches fetched
system.switch_cpus0.committedInsts          491759032                       # Number of instructions committed
system.switch_cpus0.committedOps            865239037                       # Number of ops (including micro ops) committed
system.switch_cpus0.dtb.rdAccesses          153706999                       # TLB accesses on read requests
system.switch_cpus0.dtb.rdMisses               154138                       # TLB misses on read requests
system.switch_cpus0.dtb.wrAccesses           31424616                       # TLB accesses on write requests
system.switch_cpus0.dtb.wrMisses                35388                       # TLB misses on write requests
system.switch_cpus0.idle_fraction            0.018010                       # Percentage of idle cycles
system.switch_cpus0.itb.rdAccesses                  0                       # TLB accesses on read requests
system.switch_cpus0.itb.rdMisses                    0                       # TLB misses on read requests
system.switch_cpus0.itb.wrAccesses          695683833                       # TLB accesses on write requests
system.switch_cpus0.itb.wrMisses                13959                       # TLB misses on write requests
system.switch_cpus0.kern.inst.arm                   0                       # number of arm instructions executed
system.switch_cpus0.kern.inst.quiesce               0                       # number of quiesce instructions executed
system.switch_cpus0.not_idle_fraction        0.981990                       # Percentage of non-idle cycles
system.switch_cpus0.numCycles              2181791357                       # number of cpu cycles simulated
system.switch_cpus0.numWorkItemsCompleted            0                       # number of work items this cpu completed
system.switch_cpus0.numWorkItemsStarted             0                       # number of work items this cpu started
system.switch_cpus0.num_busy_cycles      2142496545.201208                       # Number of busy cycles
system.switch_cpus0.num_cc_register_reads    462201580                       # number of times the CC registers were read
system.switch_cpus0.num_cc_register_writes    258984697                       # number of times the CC registers were written
system.switch_cpus0.num_conditional_control_insts     77500369                       # number of instructions that are conditional controls
system.switch_cpus0.num_fp_alu_accesses     210363881                       # Number of float alu accesses
system.switch_cpus0.num_fp_insts            210363881                       # number of float instructions
system.switch_cpus0.num_fp_register_reads    289902167                       # number of times the floating registers were read
system.switch_cpus0.num_fp_register_writes    175138444                       # number of times the floating registers were written
system.switch_cpus0.num_func_calls            2146607                       # number of times a function call or return occured
system.switch_cpus0.num_idle_cycles      39294811.798792                       # Number of idle cycles
system.switch_cpus0.num_int_alu_accesses    729446166                       # Number of integer alu accesses
system.switch_cpus0.num_int_insts           729446166                       # number of integer instructions
system.switch_cpus0.num_int_register_reads   1503450451                       # number of times the integer registers were read
system.switch_cpus0.num_int_register_writes    550583877                       # number of times the integer registers were written
system.switch_cpus0.num_load_insts          152364568                       # Number of load instructions
system.switch_cpus0.num_mem_refs            183736690                       # number of memory refs
system.switch_cpus0.num_store_insts          31372122                       # Number of store instructions
system.switch_cpus0.num_vec_alu_accesses            0                       # Number of vector alu accesses
system.switch_cpus0.num_vec_insts                   0                       # number of vector instructions
system.switch_cpus0.num_vec_register_reads            0                       # number of times the vector registers were read
system.switch_cpus0.num_vec_register_writes            0                       # number of times the vector registers were written
system.switch_cpus0.op_class::No_OpClass       786617      0.09%      0.09% # Class of executed instruction
system.switch_cpus0.op_class::IntAlu        549778196     63.54%     63.63% # Class of executed instruction
system.switch_cpus0.op_class::IntMult          298347      0.03%     63.67% # Class of executed instruction
system.switch_cpus0.op_class::IntDiv            66891      0.01%     63.67% # Class of executed instruction
system.switch_cpus0.op_class::FloatAdd       21834538      2.52%     66.20% # Class of executed instruction
system.switch_cpus0.op_class::FloatCmp              0      0.00%     66.20% # Class of executed instruction
system.switch_cpus0.op_class::FloatCvt           2128      0.00%     66.20% # Class of executed instruction
system.switch_cpus0.op_class::FloatMult             0      0.00%     66.20% # Class of executed instruction
system.switch_cpus0.op_class::FloatMultAcc            0      0.00%     66.20% # Class of executed instruction
system.switch_cpus0.op_class::FloatDiv              0      0.00%     66.20% # Class of executed instruction
system.switch_cpus0.op_class::FloatMisc             0      0.00%     66.20% # Class of executed instruction
system.switch_cpus0.op_class::FloatSqrt             0      0.00%     66.20% # Class of executed instruction
system.switch_cpus0.op_class::SimdAdd            8118      0.00%     66.20% # Class of executed instruction
system.switch_cpus0.op_class::SimdAddAcc            0      0.00%     66.20% # Class of executed instruction
system.switch_cpus0.op_class::SimdAlu        29637332      3.43%     69.62% # Class of executed instruction
system.switch_cpus0.op_class::SimdCmp               0      0.00%     69.62% # Class of executed instruction
system.switch_cpus0.op_class::SimdCvt             738      0.00%     69.62% # Class of executed instruction
system.switch_cpus0.op_class::SimdMisc        2717680      0.31%     69.94% # Class of executed instruction
system.switch_cpus0.op_class::SimdMult           6048      0.00%     69.94% # Class of executed instruction
system.switch_cpus0.op_class::SimdMultAcc            0      0.00%     69.94% # Class of executed instruction
system.switch_cpus0.op_class::SimdShift         10314      0.00%     69.94% # Class of executed instruction
system.switch_cpus0.op_class::SimdShiftAcc            0      0.00%     69.94% # Class of executed instruction
system.switch_cpus0.op_class::SimdDiv               0      0.00%     69.94% # Class of executed instruction
system.switch_cpus0.op_class::SimdSqrt              0      0.00%     69.94% # Class of executed instruction
system.switch_cpus0.op_class::SimdFloatAdd     35744529      4.13%     74.07% # Class of executed instruction
system.switch_cpus0.op_class::SimdFloatAlu            0      0.00%     74.07% # Class of executed instruction
system.switch_cpus0.op_class::SimdFloatCmp        83634      0.01%     74.08% # Class of executed instruction
system.switch_cpus0.op_class::SimdFloatCvt     31567658      3.65%     77.73% # Class of executed instruction
system.switch_cpus0.op_class::SimdFloatDiv       385707      0.04%     77.77% # Class of executed instruction
system.switch_cpus0.op_class::SimdFloatMisc            0      0.00%     77.77% # Class of executed instruction
system.switch_cpus0.op_class::SimdFloatMult      8143917      0.94%     78.71% # Class of executed instruction
system.switch_cpus0.op_class::SimdFloatMultAcc            0      0.00%     78.71% # Class of executed instruction
system.switch_cpus0.op_class::SimdFloatSqrt       432624      0.05%     78.76% # Class of executed instruction
system.switch_cpus0.op_class::SimdReduceAdd            0      0.00%     78.76% # Class of executed instruction
system.switch_cpus0.op_class::SimdReduceAlu            0      0.00%     78.76% # Class of executed instruction
system.switch_cpus0.op_class::SimdReduceCmp            0      0.00%     78.76% # Class of executed instruction
system.switch_cpus0.op_class::SimdFloatReduceAdd            0      0.00%     78.76% # Class of executed instruction
system.switch_cpus0.op_class::SimdFloatReduceCmp            0      0.00%     78.76% # Class of executed instruction
system.switch_cpus0.op_class::SimdAes               0      0.00%     78.76% # Class of executed instruction
system.switch_cpus0.op_class::SimdAesMix            0      0.00%     78.76% # Class of executed instruction
system.switch_cpus0.op_class::SimdSha1Hash            0      0.00%     78.76% # Class of executed instruction
system.switch_cpus0.op_class::SimdSha1Hash2            0      0.00%     78.76% # Class of executed instruction
system.switch_cpus0.op_class::SimdSha256Hash            0      0.00%     78.76% # Class of executed instruction
system.switch_cpus0.op_class::SimdSha256Hash2            0      0.00%     78.76% # Class of executed instruction
system.switch_cpus0.op_class::SimdShaSigma2            0      0.00%     78.76% # Class of executed instruction
system.switch_cpus0.op_class::SimdShaSigma3            0      0.00%     78.76% # Class of executed instruction
system.switch_cpus0.op_class::SimdPredAlu            0      0.00%     78.76% # Class of executed instruction
system.switch_cpus0.op_class::MemRead        96305468     11.13%     89.90% # Class of executed instruction
system.switch_cpus0.op_class::MemWrite       14430634      1.67%     91.56% # Class of executed instruction
system.switch_cpus0.op_class::FloatMemRead     56059100      6.48%     98.04% # Class of executed instruction
[...]
system.mem_ctrls1.llc.tags.total_refs               0                       # Total number of references to valid blocks.
system.mem_ctrls1.llc.tags.sampled_refs             0                       # Sample count of references to valid blocks.
system.mem_ctrls1.llc.tags.avg_refs               nan                       # Average number of references to valid blocks.
system.mem_ctrls1.llc.tags.warmup_cycle  99483618636500                       # Cycle when the warmup percentage was hit.
system.mem_ctrls1.llc.tags.occ_blocks::.ruby.dir_cntrl1 52713.867497                       # Average occupied blocks per requestor
system.mem_ctrls1.llc.tags.occ_percent::.ruby.dir_cntrl1     0.201087                       # Average percentage of cache occupancy
system.mem_ctrls1.llc.tags.occ_percent::total     0.201087                       # Average percentage of cache occupancy
system.mem_ctrls1.llc.tags.occ_task_id_blocks::1024        58134                       # Occupied blocks per task id
system.mem_ctrls1.llc.tags.age_task_id_blocks_1024::0            5                       # Occupied blocks per task id
system.mem_ctrls1.llc.tags.age_task_id_blocks_1024::1            2                       # Occupied blocks per task id
system.mem_ctrls1.llc.tags.age_task_id_blocks_1024::2           18                       # Occupied blocks per task id
system.mem_ctrls1.llc.tags.age_task_id_blocks_1024::3           70                       # Occupied blocks per task id
system.mem_ctrls1.llc.tags.age_task_id_blocks_1024::4        58039                       # Occupied blocks per task id
system.mem_ctrls1.llc.tags.occ_task_id_percent::1024     0.221764                       # Percentage of cache occupancy per task id
system.mem_ctrls1.llc.tags.tag_accesses      85649574                       # Number of tag accesses
system.mem_ctrls1.llc.tags.data_accesses      5349465                       # Number of data accesses
system.mem_ctrls1.llc.tags.power_state.pwrStateResidencyTicks::UNDEFINED 100575027849001                       # Cumulative time (in ticks) in various power states
system.mem_ctrls1.rank1.actEnergy            63296100                       # Energy for activate commands per rank (pJ)
system.mem_ctrls1.rank1.preEnergy            33638880                       # Energy for precharge commands per rank (pJ)
system.mem_ctrls1.rank1.readEnergy          203111580                       # Energy for read commands per rank (pJ)
system.mem_ctrls1.rank1.writeEnergy                 0                       # Energy for write commands per rank (pJ)
system.mem_ctrls1.rank1.refreshEnergy    86154703440.000015                       # Energy for refresh commands per rank (pJ)
system.mem_ctrls1.rank1.actBackEnergy     30370224150                       # Energy for active background per rank (pJ)
system.mem_ctrls1.rank1.preBackEnergy    393526149600                       # Energy for precharge background per rank (pJ)
system.mem_ctrls1.rank1.actPowerDownEnergy            0                       # Energy for active power-down per rank (pJ)
system.mem_ctrls1.rank1.prePowerDownEnergy            0                       # Energy for precharge power-down per rank (pJ)
system.mem_ctrls1.rank1.selfRefreshEnergy            0                       # Energy for self refresh per rank (pJ)
system.mem_ctrls1.rank1.totalEnergy      510351123750                       # Total energy per rank (pJ)
system.mem_ctrls1.rank1.averagePower       467.607416                       # Core power per rank (mW)
system.mem_ctrls1.rank1.totalIdleTime               0                       # Total Idle time Per DRAM Rank
system.mem_ctrls1.rank1.memoryStateTime::IDLE 1022790160000                       # Time in different power states
system.mem_ctrls1.rank1.memoryStateTime::REF  36444460000                       # Time in different power states
system.mem_ctrls1.rank1.memoryStateTime::SREF            0                       # Time in different power states
system.mem_ctrls1.rank1.memoryStateTime::PRE_PDN            0                       # Time in different power states
system.mem_ctrls1.rank1.memoryStateTime::ACT  32174769001                       # Time in different power states
system.mem_ctrls1.rank1.memoryStateTime::ACT_PDN            0                       # Time in different power states
system.mem_ctrls1.rank0.actEnergy            67922820                       # Energy for activate commands per rank (pJ)
system.mem_ctrls1.rank0.preEnergy            36098040                       # Energy for precharge commands per rank (pJ)
system.mem_ctrls1.rank0.readEnergy          211965180                       # Energy for read commands per rank (pJ)
system.mem_ctrls1.rank0.writeEnergy                 0                       # Energy for write commands per rank (pJ)
system.mem_ctrls1.rank0.refreshEnergy    86154703440.000015                       # Energy for refresh commands per rank (pJ)
system.mem_ctrls1.rank0.actBackEnergy     30988852560                       # Energy for active background per rank (pJ)
system.mem_ctrls1.rank0.preBackEnergy    393005281920                       # Energy for precharge background per rank (pJ)
system.mem_ctrls1.rank0.actPowerDownEnergy            0                       # Energy for active power-down per rank (pJ)
system.mem_ctrls1.rank0.prePowerDownEnergy            0                       # Energy for precharge power-down per rank (pJ)
system.mem_ctrls1.rank0.selfRefreshEnergy            0                       # Energy for self refresh per rank (pJ)
system.mem_ctrls1.rank0.totalEnergy      510464823960                       # Total energy per rank (pJ)
system.mem_ctrls1.rank0.averagePower       467.711593                       # Core power per rank (mW)
system.mem_ctrls1.rank0.totalIdleTime               0                       # Total Idle time Per DRAM Rank
system.mem_ctrls1.rank0.memoryStateTime::IDLE 1021429247750                       # Time in different power states
system.mem_ctrls1.rank0.memoryStateTime::REF  36444460000                       # Time in different power states
system.mem_ctrls1.rank0.memoryStateTime::SREF            0                       # Time in different power states
system.mem_ctrls1.rank0.memoryStateTime::PRE_PDN            0                       # Time in different power states
system.mem_ctrls1.rank0.memoryStateTime::ACT  33535681251                       # Time in different power states
system.mem_ctrls1.rank0.memoryStateTime::ACT_PDN            0                       # Time in different power states
system.mem_ctrls1.power_state.pwrStateResidencyTicks::UNDEFINED 100575027849001                       # Cumulative time (in ticks) in various power states
system.cpu_voltage_domain.voltage                   1                       # Voltage in Volts
system.iobus.trans_dist::ReadReq                  967                       # Transaction distribution
system.iobus.trans_dist::ReadResp                 967                       # Transaction distribution
system.iobus.trans_dist::WriteReq                6616                       # Transaction distribution
system.iobus.trans_dist::WriteResp               6616                       # Transaction distribution
system.iobus.pkt_count_system.pc.south_bridge.io_apic.int_master::system.ruby.l1_cntrl1.sequencer.pio-slave-port          424                       # Packet count per connected master and slave (bytes)
system.iobus.pkt_count_system.pc.south_bridge.io_apic.int_master::total          424                       # Packet count per connected master and slave (bytes)
system.iobus.pkt_count_system.ruby.l1_cntrl0.sequencer.mem-master-port::system.ruby.l1_cntrl0.sequencer.pio-slave-port         2896                       # Packet count per connected master and slave (bytes)
system.iobus.pkt_count_system.ruby.l1_cntrl0.sequencer.mem-master-port::system.ruby.l1_cntrl1.sequencer.pio-slave-port          106                       # Packet count per connected master and slave (bytes)
system.iobus.pkt_count_system.ruby.l1_cntrl0.sequencer.mem-master-port::system.ruby.l1_cntrl2.sequencer.pio-slave-port           76                       # Packet count per connected master and slave (bytes)
system.iobus.pkt_count_system.ruby.l1_cntrl0.sequencer.mem-master-port::system.ruby.l1_cntrl3.sequencer.pio-slave-port           28                       # Packet count per connected master and slave (bytes)
system.iobus.pkt_count_system.ruby.l1_cntrl0.sequencer.mem-master-port::total         3106                       # Packet count per connected master and slave (bytes)
system.iobus.pkt_count_system.ruby.l1_cntrl1.sequencer.mem-master-port::system.pc.south_bridge.ide.pio           60                       # Packet count per connected master and slave (bytes)
system.iobus.pkt_count_system.ruby.l1_cntrl1.sequencer.mem-master-port::system.pc.com_1.pio         1724                       # Packet count per connected master and slave (bytes)
system.iobus.pkt_count_system.ruby.l1_cntrl1.sequencer.mem-master-port::system.ruby.l1_cntrl0.sequencer.pio-slave-port          108                       # Packet count per connected master and slave (bytes)
system.iobus.pkt_count_system.ruby.l1_cntrl1.sequencer.mem-master-port::system.ruby.l1_cntrl1.sequencer.pio-slave-port         3122                       # Packet count per connected master and slave (bytes)
system.iobus.pkt_count_system.ruby.l1_cntrl1.sequencer.mem-master-port::system.ruby.l1_cntrl2.sequencer.pio-slave-port           64                       # Packet count per connected master and slave (bytes)
system.iobus.pkt_count_system.ruby.l1_cntrl1.sequencer.mem-master-port::system.ruby.l1_cntrl3.sequencer.pio-slave-port           80                       # Packet count per connected master and slave (bytes)
system.iobus.pkt_count_system.ruby.l1_cntrl1.sequencer.mem-master-port::total         5158                       # Packet count per connected master and slave (bytes)
system.iobus.pkt_count_system.ruby.l1_cntrl2.sequencer.mem-master-port::system.pc.south_bridge.ide.pio          170                       # Packet count per connected master and slave (bytes)
system.iobus.pkt_count_system.ruby.l1_cntrl2.sequencer.mem-master-port::system.ruby.l1_cntrl0.sequencer.pio-slave-port           24                       # Packet count per connected master and slave (bytes)
system.iobus.pkt_count_system.ruby.l1_cntrl2.sequencer.mem-master-port::system.ruby.l1_cntrl1.sequencer.pio-slave-port           20                       # Packet count per connected master and slave (bytes)
system.iobus.pkt_count_system.ruby.l1_cntrl2.sequencer.mem-master-port::system.ruby.l1_cntrl2.sequencer.pio-slave-port         2886                       # Packet count per connected master and slave (bytes)
system.iobus.pkt_count_system.ruby.l1_cntrl2.sequencer.mem-master-port::system.ruby.l1_cntrl3.sequencer.pio-slave-port          118                       # Packet count per connected master and slave (bytes)
system.iobus.pkt_count_system.ruby.l1_cntrl2.sequencer.mem-master-port::total         3218                       # Packet count per connected master and slave (bytes)
system.iobus.pkt_count_system.ruby.l1_cntrl3.sequencer.mem-master-port::system.ruby.l1_cntrl0.sequencer.pio-slave-port          146                       # Packet count per connected master and slave (bytes)
system.iobus.pkt_count_system.ruby.l1_cntrl3.sequencer.mem-master-port::system.ruby.l1_cntrl1.sequencer.pio-slave-port          148                       # Packet count per connected master and slave (bytes)
system.iobus.pkt_count_system.ruby.l1_cntrl3.sequencer.mem-master-port::system.ruby.l1_cntrl2.sequencer.pio-slave-port          116                       # Packet count per connected master and slave (bytes)
system.iobus.pkt_count_system.ruby.l1_cntrl3.sequencer.mem-master-port::system.ruby.l1_cntrl3.sequencer.pio-slave-port         2850                       # Packet count per connected master and slave (bytes)
system.iobus.pkt_count_system.ruby.l1_cntrl3.sequencer.mem-master-port::total         3260                       # Packet count per connected master and slave (bytes)
system.iobus.pkt_count::total                   15166                       # Packet count per connected master and slave (bytes)
system.iobus.pkt_size_system.pc.south_bridge.io_apic.int_master::system.ruby.l1_cntrl1.sequencer.pio-slave-port          848                       # Cumulative packet size per connected master and slave (bytes)
system.iobus.pkt_size_system.pc.south_bridge.io_apic.int_master::total          848                       # Cumulative packet size per connected master and slave (bytes)
system.iobus.pkt_size_system.ruby.l1_cntrl0.sequencer.mem-master-port::system.ruby.l1_cntrl0.sequencer.pio-slave-port         5792                       # Cumulative packet size per connected master and slave (bytes)
system.iobus.pkt_size_system.ruby.l1_cntrl0.sequencer.mem-master-port::system.ruby.l1_cntrl1.sequencer.pio-slave-port          212                       # Cumulative packet size per connected master and slave (bytes)
system.iobus.pkt_size_system.ruby.l1_cntrl0.sequencer.mem-master-port::system.ruby.l1_cntrl2.sequencer.pio-slave-port          152                       # Cumulative packet size per connected master and slave (bytes)
system.iobus.pkt_size_system.ruby.l1_cntrl0.sequencer.mem-master-port::system.ruby.l1_cntrl3.sequencer.pio-slave-port           56                       # Cumulative packet size per connected master and slave (bytes)
system.iobus.pkt_size_system.ruby.l1_cntrl0.sequencer.mem-master-port::total         6212                       # Cumulative packet size per connected master and slave (bytes)
system.iobus.pkt_size_system.ruby.l1_cntrl1.sequencer.mem-master-port::system.pc.south_bridge.ide.pio           30                       # Cumulative packet size per connected master and slave (bytes)
system.iobus.pkt_size_system.ruby.l1_cntrl1.sequencer.mem-master-port::system.pc.com_1.pio          862                       # Cumulative packet size per connected master and slave (bytes)
system.iobus.pkt_size_system.ruby.l1_cntrl1.sequencer.mem-master-port::system.ruby.l1_cntrl0.sequencer.pio-slave-port          216                       # Cumulative packet size per connected master and slave (bytes)
system.iobus.pkt_size_system.ruby.l1_cntrl1.sequencer.mem-master-port::system.ruby.l1_cntrl1.sequencer.pio-slave-port         6244                       # Cumulative packet size per connected master and slave (bytes)
system.iobus.pkt_size_system.ruby.l1_cntrl1.sequencer.mem-master-port::system.ruby.l1_cntrl2.sequencer.pio-slave-port          128                       # Cumulative packet size per connected master and slave (bytes)
system.iobus.pkt_size_system.ruby.l1_cntrl1.sequencer.mem-master-port::system.ruby.l1_cntrl3.sequencer.pio-slave-port          160                       # Cumulative packet size per connected master and slave (bytes)
system.iobus.pkt_size_system.ruby.l1_cntrl1.sequencer.mem-master-port::total         7640                       # Cumulative packet size per connected master and slave (bytes)
system.iobus.pkt_size_system.ruby.l1_cntrl2.sequencer.mem-master-port::system.pc.south_bridge.ide.pio          100                       # Cumulative packet size per connected master and slave (bytes)
system.iobus.pkt_size_system.ruby.l1_cntrl2.sequencer.mem-master-port::system.ruby.l1_cntrl0.sequencer.pio-slave-port           48                       # Cumulative packet size per connected master and slave (bytes)
system.iobus.pkt_size_system.ruby.l1_cntrl2.sequencer.mem-master-port::system.ruby.l1_cntrl1.sequencer.pio-slave-port           40                       # Cumulative packet size per connected master and slave (bytes)
system.iobus.pkt_size_system.ruby.l1_cntrl2.sequencer.mem-master-port::system.ruby.l1_cntrl2.sequencer.pio-slave-port         5772                       # Cumulative packet size per connected master and slave (bytes)
system.iobus.pkt_size_system.ruby.l1_cntrl2.sequencer.mem-master-port::system.ruby.l1_cntrl3.sequencer.pio-slave-port          236                       # Cumulative packet size per connected master and slave (bytes)
system.iobus.pkt_size_system.ruby.l1_cntrl2.sequencer.mem-master-port::total         6196                       # Cumulative packet size per connected master and slave (bytes)
system.iobus.pkt_size_system.ruby.l1_cntrl3.sequencer.mem-master-port::system.ruby.l1_cntrl0.sequencer.pio-slave-port          292                       # Cumulative packet size per connected master and slave (bytes)
system.iobus.pkt_size_system.ruby.l1_cntrl3.sequencer.mem-master-port::system.ruby.l1_cntrl1.sequencer.pio-slave-port          296                       # Cumulative packet size per connected master and slave (bytes)
system.iobus.pkt_size_system.ruby.l1_cntrl3.sequencer.mem-master-port::system.ruby.l1_cntrl2.sequencer.pio-slave-port          232                       # Cumulative packet size per connected master and slave (bytes)
system.iobus.pkt_size_system.ruby.l1_cntrl3.sequencer.mem-master-port::system.ruby.l1_cntrl3.sequencer.pio-slave-port         5700                       # Cumulative packet size per connected master and slave (bytes)
system.iobus.pkt_size_system.ruby.l1_cntrl3.sequencer.mem-master-port::total         6520                       # Cumulative packet size per connected master and slave (bytes)
system.iobus.pkt_size::total                    27416                       # Cumulative packet size per connected master and slave (bytes)
system.iobus.reqLayer2.occupancy               190000                       # Layer occupancy (ticks)
system.iobus.reqLayer2.utilization                0.0                       # Layer utilization (%)
system.iobus.power_state.pwrStateResidencyTicks::UNDEFINED 100575027849001                       # Cumulative time (in ticks) in various power states
system.iobus.reqLayer19.occupancy             3761604                       # Layer occupancy (ticks)
system.iobus.reqLayer19.utilization               0.0                       # Layer utilization (%)
system.iobus.reqLayer17.occupancy             3817228                       # Layer occupancy (ticks)
system.iobus.reqLayer17.utilization               0.0                       # Layer utilization (%)
system.iobus.reqLayer12.occupancy             1128000                       # Layer occupancy (ticks)
system.iobus.reqLayer12.utilization               0.0                       # Layer utilization (%)
system.iobus.reqLayer18.occupancy             4404760                       # Layer occupancy (ticks)
system.iobus.reqLayer18.utilization               0.0                       # Layer utilization (%)
system.iobus.respLayer9.occupancy             2405000                       # Layer occupancy (ticks)
system.iobus.respLayer9.utilization               0.0                       # Layer utilization (%)
system.iobus.respLayer5.occupancy             4061000                       # Layer occupancy (ticks)
system.iobus.respLayer5.utilization               0.0                       # Layer utilization (%)
system.iobus.respLayer7.occupancy             2424000                       # Layer occupancy (ticks)
system.iobus.respLayer7.utilization               0.0                       # Layer utilization (%)
system.iobus.respLayer0.occupancy              318495                       # Layer occupancy (ticks)
system.iobus.respLayer0.utilization               0.0                       # Layer utilization (%)
system.iobus.respLayer3.occupancy             2346000                       # Layer occupancy (ticks)
system.iobus.respLayer3.utilization               0.0                       # Layer utilization (%)
system.iobus.reqLayer20.occupancy             3621801                       # Layer occupancy (ticks)
system.iobus.reqLayer20.utilization               0.0                       # Layer utilization (%)

---------- End Simulation Statistics   ----------
