
---------- Begin Simulation Statistics ----------
final_tick                               101023505088001                       # Number of ticks from beginning of simulation (restored from checkpoints and never reset)
host_inst_rate                                 794471                       # Simulator instruction rate (inst/s)
host_mem_usage                                1566224                       # Number of bytes of host memory used
host_op_rate                                   934606                       # Simulator op (including micro ops) rate (op/s)
host_seconds                                  7907.82                       # Real time elapsed on the host
host_tick_rate                              123903270                       # Simulator tick rate (ticks/s)
sim_freq                                 1000000000000                       # Frequency of simulated ticks
sim_insts                                  6282540078                       # Number of instructions simulated
sim_ops                                    7390700929                       # Number of ops (including micro ops) simulated
sim_seconds                                  0.979805                       # Number of seconds simulated
sim_ticks                                979805332501                       # Number of ticks simulated
system.cpu0.committedInsts                          0                       # Number of instructions committed
system.cpu0.dtb.rdAccesses                          0                       # TLB accesses on read requests
system.cpu0.dtb.rdMisses                            0                       # TLB misses on read requests
system.cpu0.dtb.wrAccesses                          0                       # TLB accesses on write requests
system.cpu0.dtb.wrMisses                            0                       # TLB misses on write requests
system.cpu0.itb.rdAccesses                          0                       # TLB accesses on read requests
system.cpu0.itb.rdMisses                            0                       # TLB misses on read requests
system.cpu0.itb.wrAccesses                          0                       # TLB accesses on write requests
system.cpu0.itb.wrMisses                            0                       # TLB misses on write requests
system.cpu0.kern.inst.arm                           0                       # number of arm instructions executed
system.cpu0.kern.inst.quiesce                       0                       # number of quiesce instructions executed
system.cpu0.numCoalescedMMIO                        0                       # number of coalesced memory mapped IO requests
system.cpu0.numCycles                               0                       # number of cpu cycles simulated
system.cpu0.numExitSignal                           0                       # exits due to signal delivery
system.cpu0.numHalt                                 0                       # number of VM exits due to wait for interrupt instructions
system.cpu0.numHypercalls                           0                       # number of hypercalls
system.cpu0.numIO                                   0                       # number of VM exits due to legacy IO
system.cpu0.numInterrupts                           0                       # number of interrupts delivered
system.cpu0.numMMIO                                 0                       # number of VM exits due to memory mapped IO
system.cpu0.numVMExits                              0                       # total number of KVM exits
system.cpu0.numVMHalfEntries                        0                       # number of KVM entries to finalize pending operations
system.cpu0.numWorkItemsCompleted                   0                       # number of work items this cpu completed
system.cpu0.numWorkItemsStarted                     0                       # number of work items this cpu started
system.cpu1.committedInsts                          0                       # Number of instructions committed
system.cpu1.dtb.rdAccesses                          0                       # TLB accesses on read requests
system.cpu1.dtb.rdMisses                            0                       # TLB misses on read requests
system.cpu1.dtb.wrAccesses                          0                       # TLB accesses on write requests
system.cpu1.dtb.wrMisses                            0                       # TLB misses on write requests
system.cpu1.itb.rdAccesses                          0                       # TLB accesses on read requests
system.cpu1.itb.rdMisses                            0                       # TLB misses on read requests
system.cpu1.itb.wrAccesses                          0                       # TLB accesses on write requests
system.cpu1.itb.wrMisses                            0                       # TLB misses on write requests
system.cpu1.kern.inst.arm                           0                       # number of arm instructions executed
system.cpu1.kern.inst.quiesce                       0                       # number of quiesce instructions executed
system.cpu1.numCoalescedMMIO                        0                       # number of coalesced memory mapped IO requests
system.cpu1.numCycles                               0                       # number of cpu cycles simulated
system.cpu1.numExitSignal                           0                       # exits due to signal delivery
system.cpu1.numHalt                                 0                       # number of VM exits due to wait for interrupt instructions
system.cpu1.numHypercalls                           0                       # number of hypercalls
system.cpu1.numIO                                   0                       # number of VM exits due to legacy IO
system.cpu1.numInterrupts                           0                       # number of interrupts delivered
system.cpu1.numMMIO                                 0                       # number of VM exits due to memory mapped IO
system.cpu1.numVMExits                              0                       # total number of KVM exits
system.cpu1.numVMHalfEntries                        0                       # number of KVM entries to finalize pending operations
system.cpu1.numWorkItemsCompleted                   0                       # number of work items this cpu completed
system.cpu1.numWorkItemsStarted                     0                       # number of work items this cpu started
system.cpu2.committedInsts                          0                       # Number of instructions committed
system.cpu2.dtb.rdAccesses                          0                       # TLB accesses on read requests
system.cpu2.dtb.rdMisses                            0                       # TLB misses on read requests
system.cpu2.dtb.wrAccesses                          0                       # TLB accesses on write requests
system.cpu2.dtb.wrMisses                            0                       # TLB misses on write requests
system.cpu2.itb.rdAccesses                          0                       # TLB accesses on read requests
system.cpu2.itb.rdMisses                            0                       # TLB misses on read requests
system.cpu2.itb.wrAccesses                          0                       # TLB accesses on write requests
system.cpu2.itb.wrMisses                            0                       # TLB misses on write requests
system.cpu2.kern.inst.arm                           0                       # number of arm instructions executed
system.cpu2.kern.inst.quiesce                       0                       # number of quiesce instructions executed
system.cpu2.numCoalescedMMIO                        0                       # number of coalesced memory mapped IO requests
system.cpu2.numCycles                               0                       # number of cpu cycles simulated
system.cpu2.numExitSignal                           0                       # exits due to signal delivery
system.cpu2.numHalt                                 0                       # number of VM exits due to wait for interrupt instructions
system.cpu2.numHypercalls                           0                       # number of hypercalls
system.cpu2.numIO                                   0                       # number of VM exits due to legacy IO
system.cpu2.numInterrupts                           0                       # number of interrupts delivered
system.cpu2.numMMIO                                 0                       # number of VM exits due to memory mapped IO
system.cpu2.numVMExits                              0                       # total number of KVM exits
system.cpu2.numVMHalfEntries                        0                       # number of KVM entries to finalize pending operations
system.cpu2.numWorkItemsCompleted                   0                       # number of work items this cpu completed
system.cpu2.numWorkItemsStarted                     0                       # number of work items this cpu started
system.cpu3.committedInsts                          0                       # Number of instructions committed
system.cpu3.dtb.rdAccesses                          0                       # TLB accesses on read requests
system.cpu3.dtb.rdMisses                            0                       # TLB misses on read requests
system.cpu3.dtb.wrAccesses                          0                       # TLB accesses on write requests
system.cpu3.dtb.wrMisses                            0                       # TLB misses on write requests
system.cpu3.itb.rdAccesses                          0                       # TLB accesses on read requests
system.cpu3.itb.rdMisses                            0                       # TLB misses on read requests
system.cpu3.itb.wrAccesses                          0                       # TLB accesses on write requests
system.cpu3.itb.wrMisses                            0                       # TLB misses on write requests
system.cpu3.kern.inst.arm                           0                       # number of arm instructions executed
system.cpu3.kern.inst.quiesce                       0                       # number of quiesce instructions executed
system.cpu3.numCoalescedMMIO                        0                       # number of coalesced memory mapped IO requests
system.cpu3.numCycles                               0                       # number of cpu cycles simulated
system.cpu3.numExitSignal                           0                       # exits due to signal delivery
system.cpu3.numHalt                                 0                       # number of VM exits due to wait for interrupt instructions
system.cpu3.numHypercalls                           0                       # number of hypercalls
system.cpu3.numIO                                   0                       # number of VM exits due to legacy IO
system.cpu3.numInterrupts                           0                       # number of interrupts delivered
system.cpu3.numMMIO                                 0                       # number of VM exits due to memory mapped IO
system.cpu3.numVMExits                              0                       # total number of KVM exits
system.cpu3.numVMHalfEntries                        0                       # number of KVM entries to finalize pending operations
system.cpu3.numWorkItemsCompleted                   0                       # number of work items this cpu completed
system.cpu3.numWorkItemsStarted                     0                       # number of work items this cpu started
system.pc.south_bridge.ide.disks.dma_read_bytes            0                       # Number of bytes transfered via DMA reads (not PRD).
system.pc.south_bridge.ide.disks.dma_read_full_pages            0                       # Number of full page size DMA reads (not PRD).
system.pc.south_bridge.ide.disks.dma_read_txs            0                       # Number of DMA read transactions (not PRD).
system.pc.south_bridge.ide.disks.dma_write_bytes            0                       # Number of bytes transfered via DMA writes.
system.pc.south_bridge.ide.disks.dma_write_full_pages            0                       # Number of full page size DMA writes.
system.pc.south_bridge.ide.disks.dma_write_txs            0                       # Number of DMA write transactions.
system.ruby.Directory_Controller.I.allocTBE |     4622978     24.64%     24.64% |     4822181     25.70%     50.34% |     4503524     24.00%     74.35% |     4812194     25.65%    100.00%
system.ruby.Directory_Controller.I.allocTBE::total     18760877                      
system.ruby.Directory_Controller.I.deallocTBE |     4622164     24.64%     24.64% |     4821369     25.70%     50.35% |     4502710     24.00%     74.35% |     4811379     25.65%    100.00%
system.ruby.Directory_Controller.I.deallocTBE::total     18757622                      
system.ruby.Directory_Controller.I_GetML1C1_0.Stallreqto_in |          32     37.65%     37.65% |          52     61.18%     98.82% |           1      1.18%    100.00% |           0      0.00%    100.00%
system.ruby.Directory_Controller.I_GetML1C1_0.Stallreqto_in::total           85                      
system.ruby.Directory_Controller.I_GetSL1C1_0.Stallreqto_in |        3741     41.96%     41.96% |        1548     17.36%     59.33% |        1551     17.40%     76.72% |        2075     23.28%    100.00%
system.ruby.Directory_Controller.I_GetSL1C1_0.Stallreqto_in::total         8915                      
system.ruby.Directory_Controller.M.allocTBE |      295574     13.48%     13.48% |      227659     10.38%     23.86% |     1007082     45.92%     69.78% |      662667     30.22%    100.00%
system.ruby.Directory_Controller.M.allocTBE::total      2192982                      
system.ruby.Directory_Controller.M.deallocTBE |      295707     13.48%     13.48% |      227795     10.38%     23.87% |     1007218     45.92%     69.78% |      662789     30.22%    100.00%
system.ruby.Directory_Controller.M.deallocTBE::total      2193509                      
system.ruby.Directory_Controller.M_GetS.Progress |      148408     11.42%     11.42% |       66200      5.09%     16.51% |      805468     61.98%     78.50% |      279434     21.50%    100.00%
system.ruby.Directory_Controller.M_GetS.Progress::total      1299510                      
system.ruby.Directory_Controller.M_GetS.Stallreqto_in |      222494     34.24%     34.24% |        6044      0.93%     35.17% |       18808      2.89%     38.06% |      402457     61.94%    100.00%
system.ruby.Directory_Controller.M_GetS.Stallreqto_in::total       649803                      
system.ruby.Directory_Controller.M_GetS_WBL1C1_0.Stallreqto_in |      209508     10.76%     10.76% |       68785      3.53%     14.30% |     1232634     63.33%     77.63% |      435435     22.37%    100.00%
system.ruby.Directory_Controller.M_GetS_WBL1C1_0.Stallreqto_in::total      1946362                      
system.ruby.Directory_Controller.M_PutML1C1_0.Stallreqto_in |           0      0.00%      0.00% |           0      0.00%      0.00% |           2    100.00%    100.00% |           0      0.00%    100.00%
system.ruby.Directory_Controller.M_PutML1C1_0.Stallreqto_in::total            2                      
system.ruby.Directory_Controller.Progress |      148408     11.42%     11.42% |       66200      5.09%     16.51% |      805468     61.98%     78.50% |      279434     21.50%    100.00%
system.ruby.Directory_Controller.Progress::total      1299510                      
system.ruby.Directory_Controller.S.allocTBE |     6238438     23.64%     23.64% |     6613322     25.06%     48.70% |     6528987     24.74%     73.44% |     7009332     26.56%    100.00%
system.ruby.Directory_Controller.S.allocTBE::total     26390079                      
system.ruby.Directory_Controller.S.deallocTBE |     6239119     23.64%     23.64% |     6613998     25.06%     48.70% |     6529665     24.74%     73.44% |     7010025     26.56%    100.00%
system.ruby.Directory_Controller.S.deallocTBE::total     26392807                      
system.ruby.Directory_Controller.S_GetML1C1_0.Stallreqto_in |          32      0.02%      0.02% |         970      0.74%      0.76% |           6      0.00%      0.77% |      130361     99.23%    100.00%
system.ruby.Directory_Controller.S_GetML1C1_0.Stallreqto_in::total       131369                      
system.ruby.Directory_Controller.S_GetML1C1_1.Stallreqto_in |       38848      7.36%      7.36% |       11756      2.23%      9.59% |      147015     27.86%     37.45% |      330052     62.55%    100.00%
system.ruby.Directory_Controller.S_GetML1C1_1.Stallreqto_in::total       527671                      
system.ruby.Directory_Controller.S_GetML1C1_2.Stallreqto_in |           3      9.68%      9.68% |          11     35.48%     45.16% |           4     12.90%     58.06% |          13     41.94%    100.00%
system.ruby.Directory_Controller.S_GetML1C1_2.Stallreqto_in::total           31                      
system.ruby.Directory_Controller.S_GetSL1C1_0.Stallreqto_in |      132993     30.57%     30.57% |        3772      0.87%     31.44% |        3466      0.80%     32.23% |      294797     67.77%    100.00%
system.ruby.Directory_Controller.S_GetSL1C1_0.Stallreqto_in::total       435028                      
system.ruby.Directory_Controller.Stallreqto_in |      607651     16.43%     16.43% |       92938      2.51%     18.94% |     1403487     37.94%     56.88% |     1595190     43.12%    100.00%
system.ruby.Directory_Controller.Stallreqto_in::total      3699266                      
system.ruby.Directory_Controller.allocTBE |    11156990     23.57%     23.57% |    11663162     24.63%     48.20% |    12039593     25.43%     73.63% |    12484193     26.37%    100.00%
system.ruby.Directory_Controller.allocTBE::total     47343938                      
system.ruby.Directory_Controller.deallocTBE |    11156990     23.57%     23.57% |    11663162     24.63%     48.20% |    12039593     25.43%     73.63% |    12484193     26.37%    100.00%
system.ruby.Directory_Controller.deallocTBE::total     47343938                      
system.ruby.IFETCH.hit_latency_hist_seqr::bucket_size            1                      
system.ruby.IFETCH.hit_latency_hist_seqr::max_bucket            9                      
system.ruby.IFETCH.hit_latency_hist_seqr::samples   1936740471                      
system.ruby.IFETCH.hit_latency_hist_seqr |  1936740471    100.00%    100.00% |           0      0.00%    100.00% |           0      0.00%    100.00% |           0      0.00%    100.00% |           0      0.00%    100.00% |           0      0.00%    100.00% |           0      0.00%    100.00% |           0      0.00%    100.00% |           0      0.00%    100.00% |           0      0.00%    100.00%
system.ruby.IFETCH.hit_latency_hist_seqr::total   1936740471                      
system.ruby.IFETCH.latency_hist_seqr::bucket_size            1                      
system.ruby.IFETCH.latency_hist_seqr::max_bucket            9                      
system.ruby.IFETCH.latency_hist_seqr::samples   1938790850                      
system.ruby.IFETCH.latency_hist_seqr     |  1938790850    100.00%    100.00% |           0      0.00%    100.00% |           0      0.00%    100.00% |           0      0.00%    100.00% |           0      0.00%    100.00% |           0      0.00%    100.00% |           0      0.00%    100.00% |           0      0.00%    100.00% |           0      0.00%    100.00% |           0      0.00%    100.00%
system.ruby.IFETCH.latency_hist_seqr::total   1938790850                      
system.ruby.IFETCH.miss_latency_hist_seqr::bucket_size            1                      
system.ruby.IFETCH.miss_latency_hist_seqr::max_bucket            9                      
system.ruby.IFETCH.miss_latency_hist_seqr::samples      2050379                      
system.ruby.IFETCH.miss_latency_hist_seqr |     2050379    100.00%    100.00% |           0      0.00%    100.00% |           0      0.00%    100.00% |           0      0.00%    100.00% |           0      0.00%    100.00% |           0      0.00%    100.00% |           0      0.00%    100.00% |           0      0.00%    100.00% |           0      0.00%    100.00% |           0      0.00%    100.00%
system.ruby.IFETCH.miss_latency_hist_seqr::total      2050379                      
system.ruby.L1Cache_Controller.I.allocI_load |     5987293     25.91%     25.91% |     5959262     25.79%     51.70% |     5591563     24.20%     75.89% |     5571457     24.11%    100.00%
system.ruby.L1Cache_Controller.I.allocI_load::total     23109575                      
system.ruby.L1Cache_Controller.I.allocI_store |      158115     26.18%     26.18% |      143952     23.83%     50.01% |      136992     22.68%     72.70% |      164909     27.30%    100.00%
system.ruby.L1Cache_Controller.I.allocI_store::total       603968                      
system.ruby.L1Cache_Controller.I.deallocnet0from_in |      234463     26.24%     26.24% |      225654     25.26%     51.50% |      206448     23.11%     74.60% |      226900     25.40%    100.00%
system.ruby.L1Cache_Controller.I.deallocnet0from_in::total       893465                      
system.ruby.L1Cache_Controller.I.deallocnet1from_in |           0      0.00%      0.00% |           2     28.57%     28.57% |           3     42.86%     71.43% |           2     28.57%    100.00%
system.ruby.L1Cache_Controller.I.deallocnet1from_in::total            7                      
system.ruby.L1Cache_Controller.I.deallocnet2from_in |     5909921     25.90%     25.90% |     5876561     25.76%     51.66% |     5521099     24.20%     75.86% |     5508440     24.14%    100.00%
system.ruby.L1Cache_Controller.I.deallocnet2from_in::total     22816021                      
system.ruby.L1Cache_Controller.I_evict.Progress |           0      0.00%      0.00% |           2     28.57%     28.57% |           3     42.86%     71.43% |           2     28.57%    100.00%
system.ruby.L1Cache_Controller.I_evict.Progress::total            7                      
system.ruby.L1Cache_Controller.I_evict.Stallmandatory_in |           0      0.00%      0.00% |           4     44.44%     44.44% |           3     33.33%     77.78% |           2     22.22%    100.00%
system.ruby.L1Cache_Controller.I_evict.Stallmandatory_in::total            9                      
system.ruby.L1Cache_Controller.I_store.Progress |       56917     35.95%     35.95% |       45408     28.68%     64.64% |       27561     17.41%     82.05% |       28418     17.95%    100.00%
system.ruby.L1Cache_Controller.I_store.Progress::total       158304                      
system.ruby.L1Cache_Controller.I_store.Stallnet0from_in |      156332     24.04%     24.04% |      163770     25.18%     49.22% |      158212     24.33%     73.55% |      172019     26.45%    100.00%
system.ruby.L1Cache_Controller.I_store.Stallnet0from_in::total       650333                      
system.ruby.L1Cache_Controller.I_store_GetM_Ack_AD.Progress |       20492     27.51%     27.51% |       19046     25.57%     53.09% |       17826     23.93%     77.02% |       17114     22.98%    100.00%
system.ruby.L1Cache_Controller.I_store_GetM_Ack_AD.Progress::total        74478                      
system.ruby.L1Cache_Controller.I_store_GetM_Ack_AD.Stallnet0from_in |        4702     19.72%     19.72% |        5828     24.44%     44.16% |        5702     23.91%     68.07% |        7614     31.93%    100.00%
system.ruby.L1Cache_Controller.I_store_GetM_Ack_AD.Stallnet0from_in::total        23846                      
system.ruby.L1Cache_Controller.M.MloadMEvent |    15987982     20.39%     20.39% |    16585249     21.16%     41.55% |    21565288     27.51%     69.06% |    24256579     30.94%    100.00%
system.ruby.L1Cache_Controller.M.MloadMEvent::total     78395098                      
system.ruby.L1Cache_Controller.M.MstoreMEvent |     9401048     20.56%     20.56% |     9680311     21.17%     41.74% |    12378954     27.08%     68.82% |    14256465     31.18%    100.00%
system.ruby.L1Cache_Controller.M.MstoreMEvent::total     45716778                      
system.ruby.L1Cache_Controller.M.allocTBE |      773780     35.28%     35.28% |      757968     34.56%     69.85% |      324759     14.81%     84.66% |      336468     15.34%    100.00%
system.ruby.L1Cache_Controller.M.allocTBE::total      2192975                      
system.ruby.L1Cache_Controller.M.externalstoreMnet1from_in |      150696     26.67%     26.67% |      124080     21.96%     48.64% |      133502     23.63%     72.27% |      156683     27.73%    100.00%
system.ruby.L1Cache_Controller.M.externalstoreMnet1from_in::total       564961                      
system.ruby.L1Cache_Controller.M.externalstoreMrespfrom_in |      623162     38.27%     38.27% |      634017     38.93%     77.20% |      191385     11.75%     88.95% |      179977     11.05%    100.00%
system.ruby.L1Cache_Controller.M.externalstoreMrespfrom_in::total      1628541                      
system.ruby.L1Cache_Controller.M_evict.Stallmandatory_in |        7152     45.08%     45.08% |        6484     40.87%     85.96% |        1060      6.68%     92.64% |        1168      7.36%    100.00%
system.ruby.L1Cache_Controller.M_evict.Stallmandatory_in::total        15864                      
system.ruby.L1Cache_Controller.MloadMEvent |    15987982     20.39%     20.39% |    16585249     21.16%     41.55% |    21565288     27.51%     69.06% |    24256579     30.94%    100.00%
system.ruby.L1Cache_Controller.MloadMEvent::total     78395098                      
system.ruby.L1Cache_Controller.MstoreMEvent |     9401048     20.56%     20.56% |     9680311     21.17%     41.74% |    12378954     27.08%     68.82% |    14256465     31.18%    100.00%
system.ruby.L1Cache_Controller.MstoreMEvent::total     45716778                      
system.ruby.L1Cache_Controller.Progress  |     1248246     38.44%     38.44% |     1250527     38.51%     76.95% |      396592     12.21%     89.16% |      351902     10.84%    100.00%
system.ruby.L1Cache_Controller.Progress::total      3247267                      
system.ruby.L1Cache_Controller.S.SloadSEvent |   571398926     24.12%     24.12% |   576079931     24.32%     48.45% |   603321383     25.47%     73.92% |   617812733     26.08%    100.00%
system.ruby.L1Cache_Controller.S.SloadSEvent::total   2368612973                      
system.ruby.L1Cache_Controller.S.allocTBE |     6525664     26.74%     26.74% |     6490706     26.60%     53.33% |     5708997     23.39%     76.73% |     5680192     23.27%    100.00%
system.ruby.L1Cache_Controller.S.allocTBE::total     24405559                      
system.ruby.L1Cache_Controller.S.deallocTBE |      539317     41.50%     41.50% |      532312     40.96%     82.46% |      118311      9.10%     91.57% |      109567      8.43%    100.00%
system.ruby.L1Cache_Controller.S.deallocTBE::total      1299507                      
system.ruby.L1Cache_Controller.S.externalloadSnet0from_in |     5454063     25.01%     25.01% |     5420187     24.85%     49.86% |     5478301     25.12%     74.98% |     5457514     25.02%    100.00%
system.ruby.L1Cache_Controller.S.externalloadSnet0from_in::total     21810065                      
system.ruby.L1Cache_Controller.S.externalloadSrespfrom_in |      533230     41.03%     41.03% |      539075     41.48%     82.52% |      113262      8.72%     91.23% |      113943      8.77%    100.00%
system.ruby.L1Cache_Controller.S.externalloadSrespfrom_in::total      1299510                      
system.ruby.L1Cache_Controller.S_evict.Progress |           0      0.00%      0.00% |           2     66.67%     66.67% |           0      0.00%     66.67% |           1     33.33%    100.00%
system.ruby.L1Cache_Controller.S_evict.Progress::total            3                      
system.ruby.L1Cache_Controller.S_evict.Stallmandatory_in |       88325     39.68%     39.68% |       94388     42.40%     82.08% |       21098      9.48%     91.56% |       18789      8.44%    100.00%
system.ruby.L1Cache_Controller.S_evict.Stallmandatory_in::total       222600                      
system.ruby.L1Cache_Controller.S_evict.Stallnet1from_in |           0      0.00%      0.00% |           0      0.00%      0.00% |           0      0.00%      0.00% |           1    100.00%    100.00%
system.ruby.L1Cache_Controller.S_evict.Stallnet1from_in::total            1                      
system.ruby.L1Cache_Controller.S_store.Progress |      615743     38.74%     38.74% |      614145     38.64%     77.37% |      187895     11.82%     89.19% |      171753     10.81%    100.00%
system.ruby.L1Cache_Controller.S_store.Progress::total      1589536                      
system.ruby.L1Cache_Controller.S_store.Stallnet0from_in |       71781     25.76%     25.76% |      106932     38.37%     64.12% |       49346     17.71%     81.83% |       50648     18.17%    100.00%
system.ruby.L1Cache_Controller.S_store.Stallnet0from_in::total       278707                      
system.ruby.L1Cache_Controller.S_store_GetM_Ack_AD.Progress |      555094     38.96%     38.96% |      571924     40.14%     79.09% |      163307     11.46%     90.55% |      134614      9.45%    100.00%
system.ruby.L1Cache_Controller.S_store_GetM_Ack_AD.Progress::total      1424939                      
system.ruby.L1Cache_Controller.S_store_GetM_Ack_AD.Stallnet0from_in |       46069     29.58%     29.58% |       47051     30.21%     59.79% |       28738     18.45%     78.24% |       33884     21.76%    100.00%
system.ruby.L1Cache_Controller.S_store_GetM_Ack_AD.Stallnet0from_in::total       155742                      
system.ruby.L1Cache_Controller.SloadSEvent |   571398926     24.12%     24.12% |   576079931     24.32%     48.45% |   603321383     25.47%     73.92% |   617812733     26.08%    100.00%
system.ruby.L1Cache_Controller.SloadSEvent::total   2368612973                      
system.ruby.L1Cache_Controller.Stallmandatory_in |       95477     40.04%     40.04% |      100876     42.30%     82.34% |       22161      9.29%     91.63% |       19959      8.37%    100.00%
system.ruby.L1Cache_Controller.Stallmandatory_in::total       238473                      
system.ruby.L1Cache_Controller.Stallnet0from_in |      278884     25.16%     25.16% |      323581     29.19%     54.34% |      241998     21.83%     76.17% |      264165     23.83%    100.00%
system.ruby.L1Cache_Controller.Stallnet0from_in::total      1108628                      
system.ruby.L1Cache_Controller.Stallnet1from_in |           0      0.00%      0.00% |           0      0.00%      0.00% |           0      0.00%      0.00% |           1    100.00%    100.00%
system.ruby.L1Cache_Controller.Stallnet1from_in::total            1                      
system.ruby.L1Cache_Controller.allocI_load |     5987293     25.91%     25.91% |     5959262     25.79%     51.70% |     5591563     24.20%     75.89% |     5571457     24.11%    100.00%
system.ruby.L1Cache_Controller.allocI_load::total     23109575                      
system.ruby.L1Cache_Controller.allocI_store |      158115     26.18%     26.18% |      143952     23.83%     50.01% |      136992     22.68%     72.70% |      164909     27.30%    100.00%
system.ruby.L1Cache_Controller.allocI_store::total       603968                      
system.ruby.L1Cache_Controller.allocTBE  |     7299444     27.44%     27.44% |     7248674     27.25%     54.70% |     6033756     22.68%     77.38% |     6016660     22.62%    100.00%
system.ruby.L1Cache_Controller.allocTBE::total     26598534                      
system.ruby.L1Cache_Controller.deallocTBE |      539317     41.50%     41.50% |      532312     40.96%     82.46% |      118311      9.10%     91.57% |      109567      8.43%    100.00%
system.ruby.L1Cache_Controller.deallocTBE::total      1299507                      
system.ruby.L1Cache_Controller.deallocnet0from_in |      234463     26.24%     26.24% |      225654     25.26%     51.50% |      206448     23.11%     74.60% |      226900     25.40%    100.00%
system.ruby.L1Cache_Controller.deallocnet0from_in::total       893465                      
system.ruby.L1Cache_Controller.deallocnet1from_in |           0      0.00%      0.00% |           2     28.57%     28.57% |           3     42.86%     71.43% |           2     28.57%    100.00%
system.ruby.L1Cache_Controller.deallocnet1from_in::total            7                      
system.ruby.L1Cache_Controller.deallocnet2from_in |     5909921     25.90%     25.90% |     5876561     25.76%     51.66% |     5521099     24.20%     75.86% |     5508440     24.14%    100.00%
system.ruby.L1Cache_Controller.deallocnet2from_in::total     22816021                      
system.ruby.L1Cache_Controller.externalloadSnet0from_in |     5454063     25.01%     25.01% |     5420187     24.85%     49.86% |     5478301     25.12%     74.98% |     5457514     25.02%    100.00%
system.ruby.L1Cache_Controller.externalloadSnet0from_in::total     21810065                      
system.ruby.L1Cache_Controller.externalloadSrespfrom_in |      533230     41.03%     41.03% |      539075     41.48%     82.52% |      113262      8.72%     91.23% |      113943      8.77%    100.00%
system.ruby.L1Cache_Controller.externalloadSrespfrom_in::total      1299510                      
system.ruby.L1Cache_Controller.externalstoreMnet1from_in |      150696     26.67%     26.67% |      124080     21.96%     48.64% |      133502     23.63%     72.27% |      156683     27.73%    100.00%
system.ruby.L1Cache_Controller.externalstoreMnet1from_in::total       564961                      
system.ruby.L1Cache_Controller.externalstoreMrespfrom_in |      623162     38.27%     38.27% |      634017     38.93%     77.20% |      191385     11.75%     88.95% |      179977     11.05%    100.00%
system.ruby.L1Cache_Controller.externalstoreMrespfrom_in::total      1628541                      
system.ruby.LD.hit_latency_hist_seqr::bucket_size            1                      
system.ruby.LD.hit_latency_hist_seqr::max_bucket            9                      
system.ruby.LD.hit_latency_hist_seqr::samples    510267600                      
system.ruby.LD.hit_latency_hist_seqr     |   510267600    100.00%    100.00% |           0      0.00%    100.00% |           0      0.00%    100.00% |           0      0.00%    100.00% |           0      0.00%    100.00% |           0      0.00%    100.00% |           0      0.00%    100.00% |           0      0.00%    100.00% |           0      0.00%    100.00% |           0      0.00%    100.00%
system.ruby.LD.hit_latency_hist_seqr::total    510267600                      
system.ruby.LD.latency_hist_seqr::bucket_size            1                      
system.ruby.LD.latency_hist_seqr::max_bucket            9                      
system.ruby.LD.latency_hist_seqr::samples    531326796                      
system.ruby.LD.latency_hist_seqr         |   531326796    100.00%    100.00% |           0      0.00%    100.00% |           0      0.00%    100.00% |           0      0.00%    100.00% |           0      0.00%    100.00% |           0      0.00%    100.00% |           0      0.00%    100.00% |           0      0.00%    100.00% |           0      0.00%    100.00% |           0      0.00%    100.00%
system.ruby.LD.latency_hist_seqr::total     531326796                      
system.ruby.LD.miss_latency_hist_seqr::bucket_size            1                      
system.ruby.LD.miss_latency_hist_seqr::max_bucket            9                      
system.ruby.LD.miss_latency_hist_seqr::samples     21059196                      
system.ruby.LD.miss_latency_hist_seqr    |    21059196    100.00%    100.00% |           0      0.00%    100.00% |           0      0.00%    100.00% |           0      0.00%    100.00% |           0      0.00%    100.00% |           0      0.00%    100.00% |           0      0.00%    100.00% |           0      0.00%    100.00% |           0      0.00%    100.00% |           0      0.00%    100.00%
system.ruby.LD.miss_latency_hist_seqr::total     21059196                      
system.ruby.Locked_RMW_Read.hit_latency_hist_seqr::bucket_size            1                      
system.ruby.Locked_RMW_Read.hit_latency_hist_seqr::max_bucket            9                      
system.ruby.Locked_RMW_Read.hit_latency_hist_seqr::samples       173291                      
system.ruby.Locked_RMW_Read.hit_latency_hist_seqr |      173291    100.00%    100.00% |           0      0.00%    100.00% |           0      0.00%    100.00% |           0      0.00%    100.00% |           0      0.00%    100.00% |           0      0.00%    100.00% |           0      0.00%    100.00% |           0      0.00%    100.00% |           0      0.00%    100.00% |           0      0.00%    100.00%
system.ruby.Locked_RMW_Read.hit_latency_hist_seqr::total       173291                      
system.ruby.Locked_RMW_Read.latency_hist_seqr::bucket_size            1                      
system.ruby.Locked_RMW_Read.latency_hist_seqr::max_bucket            9                      
system.ruby.Locked_RMW_Read.latency_hist_seqr::samples       537997                      
system.ruby.Locked_RMW_Read.latency_hist_seqr |      537997    100.00%    100.00% |           0      0.00%    100.00% |           0      0.00%    100.00% |           0      0.00%    100.00% |           0      0.00%    100.00% |           0      0.00%    100.00% |           0      0.00%    100.00% |           0      0.00%    100.00% |           0      0.00%    100.00% |           0      0.00%    100.00%
system.ruby.Locked_RMW_Read.latency_hist_seqr::total       537997                      
system.ruby.Locked_RMW_Read.miss_latency_hist_seqr::bucket_size            1                      
system.ruby.Locked_RMW_Read.miss_latency_hist_seqr::max_bucket            9                      
system.ruby.Locked_RMW_Read.miss_latency_hist_seqr::samples       364706                      
system.ruby.Locked_RMW_Read.miss_latency_hist_seqr |      364706    100.00%    100.00% |           0      0.00%    100.00% |           0      0.00%    100.00% |           0      0.00%    100.00% |           0      0.00%    100.00% |           0      0.00%    100.00% |           0      0.00%    100.00% |           0      0.00%    100.00% |           0      0.00%    100.00% |           0      0.00%    100.00%
system.ruby.Locked_RMW_Read.miss_latency_hist_seqr::total       364706                      
system.ruby.Locked_RMW_Write.hit_latency_hist_seqr::bucket_size            1                      
system.ruby.Locked_RMW_Write.hit_latency_hist_seqr::max_bucket            9                      
system.ruby.Locked_RMW_Write.hit_latency_hist_seqr::samples       537997                      
system.ruby.Locked_RMW_Write.hit_latency_hist_seqr |      537997    100.00%    100.00% |           0      0.00%    100.00% |           0      0.00%    100.00% |           0      0.00%    100.00% |           0      0.00%    100.00% |           0      0.00%    100.00% |           0      0.00%    100.00% |           0      0.00%    100.00% |           0      0.00%    100.00% |           0      0.00%    100.00%
system.ruby.Locked_RMW_Write.hit_latency_hist_seqr::total       537997                      
system.ruby.Locked_RMW_Write.latency_hist_seqr::bucket_size            1                      
system.ruby.Locked_RMW_Write.latency_hist_seqr::max_bucket            9                      
system.ruby.Locked_RMW_Write.latency_hist_seqr::samples       537997                      
system.ruby.Locked_RMW_Write.latency_hist_seqr |      537997    100.00%    100.00% |           0      0.00%    100.00% |           0      0.00%    100.00% |           0      0.00%    100.00% |           0      0.00%    100.00% |           0      0.00%    100.00% |           0      0.00%    100.00% |           0      0.00%    100.00% |           0      0.00%    100.00% |           0      0.00%    100.00%
system.ruby.Locked_RMW_Write.latency_hist_seqr::total       537997                      
system.ruby.RMW_Read.hit_latency_hist_seqr::bucket_size            1                      
system.ruby.RMW_Read.hit_latency_hist_seqr::max_bucket            9                      
system.ruby.RMW_Read.hit_latency_hist_seqr::samples       312208                      
system.ruby.RMW_Read.hit_latency_hist_seqr |      312208    100.00%    100.00% |           0      0.00%    100.00% |           0      0.00%    100.00% |           0      0.00%    100.00% |           0      0.00%    100.00% |           0      0.00%    100.00% |           0      0.00%    100.00% |           0      0.00%    100.00% |           0      0.00%    100.00% |           0      0.00%    100.00%
system.ruby.RMW_Read.hit_latency_hist_seqr::total       312208                      
system.ruby.RMW_Read.latency_hist_seqr::bucket_size            1                      
system.ruby.RMW_Read.latency_hist_seqr::max_bucket            9                      
system.ruby.RMW_Read.latency_hist_seqr::samples       442734                      
system.ruby.RMW_Read.latency_hist_seqr   |      442734    100.00%    100.00% |           0      0.00%    100.00% |           0      0.00%    100.00% |           0      0.00%    100.00% |           0      0.00%    100.00% |           0      0.00%    100.00% |           0      0.00%    100.00% |           0      0.00%    100.00% |           0      0.00%    100.00% |           0      0.00%    100.00%
system.ruby.RMW_Read.latency_hist_seqr::total       442734                      
system.ruby.RMW_Read.miss_latency_hist_seqr::bucket_size            1                      
system.ruby.RMW_Read.miss_latency_hist_seqr::max_bucket            9                      
system.ruby.RMW_Read.miss_latency_hist_seqr::samples       130526                      
system.ruby.RMW_Read.miss_latency_hist_seqr |      130526    100.00%    100.00% |           0      0.00%    100.00% |           0      0.00%    100.00% |           0      0.00%    100.00% |           0      0.00%    100.00% |           0      0.00%    100.00% |           0      0.00%    100.00% |           0      0.00%    100.00% |           0      0.00%    100.00% |           0      0.00%    100.00%
system.ruby.RMW_Read.miss_latency_hist_seqr::total       130526                      
system.ruby.ST.hit_latency_hist_seqr::bucket_size            1                      
system.ruby.ST.hit_latency_hist_seqr::max_bucket            9                      
system.ruby.ST.hit_latency_hist_seqr::samples     44693282                      
system.ruby.ST.hit_latency_hist_seqr     |    44693282    100.00%    100.00% |           0      0.00%    100.00% |           0      0.00%    100.00% |           0      0.00%    100.00% |           0      0.00%    100.00% |           0      0.00%    100.00% |           0      0.00%    100.00% |           0      0.00%    100.00% |           0      0.00%    100.00% |           0      0.00%    100.00%
system.ruby.ST.hit_latency_hist_seqr::total     44693282                      
system.ruby.ST.latency_hist_seqr::bucket_size            1                      
system.ruby.ST.latency_hist_seqr::max_bucket            9                      
system.ruby.ST.latency_hist_seqr::samples     46391552                      
system.ruby.ST.latency_hist_seqr         |    46391552    100.00%    100.00% |           0      0.00%    100.00% |           0      0.00%    100.00% |           0      0.00%    100.00% |           0      0.00%    100.00% |           0      0.00%    100.00% |           0      0.00%    100.00% |           0      0.00%    100.00% |           0      0.00%    100.00% |           0      0.00%    100.00%
system.ruby.ST.latency_hist_seqr::total      46391552                      
system.ruby.ST.miss_latency_hist_seqr::bucket_size            1                      
system.ruby.ST.miss_latency_hist_seqr::max_bucket            9                      
system.ruby.ST.miss_latency_hist_seqr::samples      1698270                      
system.ruby.ST.miss_latency_hist_seqr    |     1698270    100.00%    100.00% |           0      0.00%    100.00% |           0      0.00%    100.00% |           0      0.00%    100.00% |           0      0.00%    100.00% |           0      0.00%    100.00% |           0      0.00%    100.00% |           0      0.00%    100.00% |           0      0.00%    100.00% |           0      0.00%    100.00%
system.ruby.ST.miss_latency_hist_seqr::total      1698270                      
system.ruby.dir_cntrl0.net0From.avg_buf_msgs     0.017260                       # Average number of messages in buffer
system.ruby.dir_cntrl0.net0From.avg_stall_time  3000.019716                       # Average number of cycles messages are stalled in this MB
system.ruby.dir_cntrl0.net1From.avg_buf_msgs     0.000889                       # Average number of messages in buffer
system.ruby.dir_cntrl0.net1From.avg_stall_time  2999.993739                       # Average number of cycles messages are stalled in this MB
system.ruby.dir_cntrl0.net2From.avg_buf_msgs     0.016466                       # Average number of messages in buffer
system.ruby.dir_cntrl0.net2From.avg_stall_time  3000.000693                       # Average number of cycles messages are stalled in this MB
system.ruby.dir_cntrl0.reqTo.avg_buf_msgs     0.008796                       # Average number of messages in buffer
system.ruby.dir_cntrl0.reqTo.avg_stall_time  4320.988298                       # Average number of cycles messages are stalled in this MB
system.ruby.dir_cntrl0.requestToMemory.avg_buf_msgs     0.003022                       # Average number of messages in buffer
system.ruby.dir_cntrl0.requestToMemory.avg_stall_time   499.999968                       # Average number of cycles messages are stalled in this MB
system.ruby.dir_cntrl0.respTo.avg_buf_msgs     0.000076                       # Average number of messages in buffer
system.ruby.dir_cntrl0.respTo.avg_stall_time 14333.338366                       # Average number of cycles messages are stalled in this MB
system.ruby.dir_cntrl0.responseFromMemory.avg_buf_msgs     0.003029                       # Average number of messages in buffer
system.ruby.dir_cntrl0.responseFromMemory.avg_stall_time   499.999900                       # Average number of cycles messages are stalled in this MB
system.ruby.dir_cntrl1.net0From.avg_buf_msgs     0.017967                       # Average number of messages in buffer
system.ruby.dir_cntrl1.net0From.avg_stall_time  3000.008440                       # Average number of cycles messages are stalled in this MB
system.ruby.dir_cntrl1.net1From.avg_buf_msgs     0.000620                       # Average number of messages in buffer
system.ruby.dir_cntrl1.net1From.avg_stall_time  2999.994103                       # Average number of cycles messages are stalled in this MB
system.ruby.dir_cntrl1.net2From.avg_buf_msgs     0.017328                       # Average number of messages in buffer
system.ruby.dir_cntrl1.net2From.avg_stall_time  2999.966370                       # Average number of cycles messages are stalled in this MB
system.ruby.dir_cntrl1.reqTo.avg_buf_msgs     0.006426                       # Average number of messages in buffer
system.ruby.dir_cntrl1.reqTo.avg_stall_time  4168.735286                       # Average number of cycles messages are stalled in this MB
system.ruby.dir_cntrl1.requestToMemory.avg_buf_msgs     0.003085                       # Average number of messages in buffer
system.ruby.dir_cntrl1.requestToMemory.avg_stall_time   499.999997                       # Average number of cycles messages are stalled in this MB
system.ruby.dir_cntrl1.respTo.avg_buf_msgs     0.000034                       # Average number of messages in buffer
system.ruby.dir_cntrl1.respTo.avg_stall_time 14614.371227                       # Average number of cycles messages are stalled in this MB
system.ruby.dir_cntrl1.responseFromMemory.avg_buf_msgs     0.003092                       # Average number of messages in buffer
system.ruby.dir_cntrl1.responseFromMemory.avg_stall_time   499.999954                       # Average number of cycles messages are stalled in this MB
system.ruby.dir_cntrl2.net0From.avg_buf_msgs     0.018609                       # Average number of messages in buffer
system.ruby.dir_cntrl2.net0From.avg_stall_time  3000.027085                       # Average number of cycles messages are stalled in this MB
system.ruby.dir_cntrl2.net1From.avg_buf_msgs     0.002912                       # Average number of messages in buffer
system.ruby.dir_cntrl2.net1From.avg_stall_time  2999.996142                       # Average number of cycles messages are stalled in this MB
system.ruby.dir_cntrl2.net2From.avg_buf_msgs     0.017812                       # Average number of messages in buffer
system.ruby.dir_cntrl2.net2From.avg_stall_time  2999.967760                       # Average number of cycles messages are stalled in this MB
system.ruby.dir_cntrl2.reqTo.avg_buf_msgs     0.013308                       # Average number of messages in buffer
system.ruby.dir_cntrl2.reqTo.avg_stall_time  4815.870171                       # Average number of cycles messages are stalled in this MB
system.ruby.dir_cntrl2.requestToMemory.avg_buf_msgs     0.003558                       # Average number of messages in buffer
system.ruby.dir_cntrl2.requestToMemory.avg_stall_time   499.999820                       # Average number of cycles messages are stalled in this MB
system.ruby.dir_cntrl2.respTo.avg_buf_msgs     0.000411                       # Average number of messages in buffer
system.ruby.dir_cntrl2.respTo.avg_stall_time 14466.422825                       # Average number of cycles messages are stalled in this MB
system.ruby.dir_cntrl2.responseFromMemory.avg_buf_msgs     0.003567                       # Average number of messages in buffer
system.ruby.dir_cntrl2.responseFromMemory.avg_stall_time   499.999778                       # Average number of cycles messages are stalled in this MB
system.ruby.dir_cntrl3.net0From.avg_buf_msgs     0.019660                       # Average number of messages in buffer
system.ruby.dir_cntrl3.net0From.avg_stall_time  3000.100810                       # Average number of cycles messages are stalled in this MB
system.ruby.dir_cntrl3.net1From.avg_buf_msgs     0.001293                       # Average number of messages in buffer
system.ruby.dir_cntrl3.net1From.avg_stall_time  2999.992168                       # Average number of cycles messages are stalled in this MB
system.ruby.dir_cntrl3.net2From.avg_buf_msgs     0.018131                       # Average number of messages in buffer
system.ruby.dir_cntrl3.net2From.avg_stall_time  2999.975518                       # Average number of cycles messages are stalled in this MB
system.ruby.dir_cntrl3.reqTo.avg_buf_msgs     0.014517                       # Average number of messages in buffer
system.ruby.dir_cntrl3.reqTo.avg_stall_time  4370.456309                       # Average number of cycles messages are stalled in this MB
system.ruby.dir_cntrl3.requestToMemory.avg_buf_msgs     0.003369                       # Average number of messages in buffer
system.ruby.dir_cntrl3.requestToMemory.avg_stall_time   500.000119                       # Average number of cycles messages are stalled in this MB
system.ruby.dir_cntrl3.respTo.avg_buf_msgs     0.000143                       # Average number of messages in buffer
system.ruby.dir_cntrl3.respTo.avg_stall_time 14706.071451                       # Average number of cycles messages are stalled in this MB
system.ruby.dir_cntrl3.responseFromMemory.avg_buf_msgs     0.003377                       # Average number of messages in buffer
system.ruby.dir_cntrl3.responseFromMemory.avg_stall_time   499.999955                       # Average number of cycles messages are stalled in this MB
system.ruby.dma_cntrl0.cache.demand_accesses            0                       # Number of cache demand accesses
system.ruby.dma_cntrl0.cache.demand_hits            0                       # Number of cache demand hits
system.ruby.dma_cntrl0.cache.demand_misses            0                       # Number of cache demand misses
system.ruby.hit_latency_hist_seqr::bucket_size            1                      
system.ruby.hit_latency_hist_seqr::max_bucket            9                      
system.ruby.hit_latency_hist_seqr::samples   2492724849                      
system.ruby.hit_latency_hist_seqr        |  2492724849    100.00%    100.00% |           0      0.00%    100.00% |           0      0.00%    100.00% |           0      0.00%    100.00% |           0      0.00%    100.00% |           0      0.00%    100.00% |           0      0.00%    100.00% |           0      0.00%    100.00% |           0      0.00%    100.00% |           0      0.00%    100.00%
system.ruby.hit_latency_hist_seqr::total   2492724849                      
system.ruby.io_controller.cache.demand_accesses            0                       # Number of cache demand accesses
system.ruby.io_controller.cache.demand_hits            0                       # Number of cache demand hits
system.ruby.io_controller.cache.demand_misses            0                       # Number of cache demand misses
system.ruby.l1_cntrl0.cache.demand_accesses            0                       # Number of cache demand accesses
system.ruby.l1_cntrl0.cache.demand_hits             0                       # Number of cache demand hits
system.ruby.l1_cntrl0.cache.demand_misses            0                       # Number of cache demand misses
system.ruby.l1_cntrl0.fully_busy_cycles          2330                       # cycles for which number of transistions == max transitions
system.ruby.l1_cntrl0.mandatoryQueue.avg_buf_msgs     0.371138                       # Average number of messages in buffer
system.ruby.l1_cntrl0.mandatoryQueue.avg_stall_time  3180.282648                       # Average number of cycles messages are stalled in this MB
system.ruby.l1_cntrl0.net0From.avg_buf_msgs  7994.222779                       # Average number of messages in buffer
system.ruby.l1_cntrl0.net0From.avg_stall_time 15276.423984                       # Average number of cycles messages are stalled in this MB
system.ruby.l1_cntrl0.net1From.avg_buf_msgs     0.000345                       # Average number of messages in buffer
system.ruby.l1_cntrl0.net1From.avg_stall_time 16559.344194                       # Average number of cycles messages are stalled in this MB
system.ruby.l1_cntrl0.net2From.avg_buf_msgs     0.003045                       # Average number of messages in buffer
system.ruby.l1_cntrl0.net2From.avg_stall_time  6550.923261                       # Average number of cycles messages are stalled in this MB
system.ruby.l1_cntrl0.reqTo.avg_buf_msgs     0.006267                       # Average number of messages in buffer
system.ruby.l1_cntrl0.reqTo.avg_stall_time   500.000004                       # Average number of cycles messages are stalled in this MB
system.ruby.l1_cntrl0.respFrom.avg_buf_msgs     0.000616                       # Average number of messages in buffer
system.ruby.l1_cntrl0.respFrom.avg_stall_time 14160.854155                       # Average number of cycles messages are stalled in this MB
system.ruby.l1_cntrl0.respTo.avg_buf_msgs     0.001173                       # Average number of messages in buffer
system.ruby.l1_cntrl0.respTo.avg_stall_time   573.614363                       # Average number of cycles messages are stalled in this MB
system.ruby.l1_cntrl1.cache.demand_accesses            0                       # Number of cache demand accesses
system.ruby.l1_cntrl1.cache.demand_hits             0                       # Number of cache demand hits
system.ruby.l1_cntrl1.cache.demand_misses            0                       # Number of cache demand misses
system.ruby.l1_cntrl1.fully_busy_cycles          2959                       # cycles for which number of transistions == max transitions
system.ruby.l1_cntrl1.mandatoryQueue.avg_buf_msgs     0.372621                       # Average number of messages in buffer
system.ruby.l1_cntrl1.mandatoryQueue.avg_stall_time  3108.602279                       # Average number of cycles messages are stalled in this MB
system.ruby.l1_cntrl1.net0From.avg_buf_msgs 10560.111486                       # Average number of messages in buffer
system.ruby.l1_cntrl1.net0From.avg_stall_time 15572.716456                       # Average number of cycles messages are stalled in this MB
system.ruby.l1_cntrl1.net1From.avg_buf_msgs     0.000340                       # Average number of messages in buffer
system.ruby.l1_cntrl1.net1From.avg_stall_time 16869.863766                       # Average number of cycles messages are stalled in this MB
system.ruby.l1_cntrl1.net2From.avg_buf_msgs     0.003022                       # Average number of messages in buffer
system.ruby.l1_cntrl1.net2From.avg_stall_time  6589.761278                       # Average number of cycles messages are stalled in this MB
system.ruby.l1_cntrl1.reqTo.avg_buf_msgs     0.006217                       # Average number of messages in buffer
system.ruby.l1_cntrl1.reqTo.avg_stall_time   500.000005                       # Average number of cycles messages are stalled in this MB
system.ruby.l1_cntrl1.respFrom.avg_buf_msgs     0.000623                       # Average number of messages in buffer
system.ruby.l1_cntrl1.respFrom.avg_stall_time 14200.712954                       # Average number of cycles messages are stalled in this MB
system.ruby.l1_cntrl1.respTo.avg_buf_msgs     0.001163                       # Average number of messages in buffer
system.ruby.l1_cntrl1.respTo.avg_stall_time   563.259665                       # Average number of cycles messages are stalled in this MB
system.ruby.l1_cntrl2.cache.demand_accesses            0                       # Number of cache demand accesses
system.ruby.l1_cntrl2.cache.demand_hits             0                       # Number of cache demand hits
system.ruby.l1_cntrl2.cache.demand_misses            0                       # Number of cache demand misses
system.ruby.l1_cntrl2.fully_busy_cycles          1119                       # cycles for which number of transistions == max transitions
system.ruby.l1_cntrl2.mandatoryQueue.avg_buf_msgs     0.391352                       # Average number of messages in buffer
system.ruby.l1_cntrl2.mandatoryQueue.avg_stall_time  3181.110724                       # Average number of cycles messages are stalled in this MB
system.ruby.l1_cntrl2.net0From.avg_buf_msgs 10333.228915                       # Average number of messages in buffer
system.ruby.l1_cntrl2.net0From.avg_stall_time 15819.726855                       # Average number of cycles messages are stalled in this MB
system.ruby.l1_cntrl2.net1From.avg_buf_msgs     0.000131                       # Average number of messages in buffer
system.ruby.l1_cntrl2.net1From.avg_stall_time 16665.697377                       # Average number of cycles messages are stalled in this MB
system.ruby.l1_cntrl2.net2From.avg_buf_msgs     0.002832                       # Average number of messages in buffer
system.ruby.l1_cntrl2.net2From.avg_stall_time  6600.348004                       # Average number of cycles messages are stalled in this MB
system.ruby.l1_cntrl2.reqTo.avg_buf_msgs     0.005840                       # Average number of messages in buffer
system.ruby.l1_cntrl2.reqTo.avg_stall_time   500.000005                       # Average number of cycles messages are stalled in this MB
system.ruby.l1_cntrl2.respFrom.avg_buf_msgs     0.000185                       # Average number of messages in buffer
system.ruby.l1_cntrl2.respFrom.avg_stall_time 14403.784895                       # Average number of cycles messages are stalled in this MB
system.ruby.l1_cntrl2.respTo.avg_buf_msgs     0.000298                       # Average number of messages in buffer
system.ruby.l1_cntrl2.respTo.avg_stall_time   678.625280                       # Average number of cycles messages are stalled in this MB
system.ruby.l1_cntrl3.cache.demand_accesses            0                       # Number of cache demand accesses
system.ruby.l1_cntrl3.cache.demand_hits             0                       # Number of cache demand hits
system.ruby.l1_cntrl3.cache.demand_misses            0                       # Number of cache demand misses
system.ruby.l1_cntrl3.fully_busy_cycles          1034                       # cycles for which number of transistions == max transitions
system.ruby.l1_cntrl3.mandatoryQueue.avg_buf_msgs     0.400706                       # Average number of messages in buffer
system.ruby.l1_cntrl3.mandatoryQueue.avg_stall_time  3175.231838                       # Average number of cycles messages are stalled in this MB
system.ruby.l1_cntrl3.net0From.avg_buf_msgs 10532.472620                       # Average number of messages in buffer
system.ruby.l1_cntrl3.net0From.avg_stall_time 15892.572147                       # Average number of cycles messages are stalled in this MB
system.ruby.l1_cntrl3.net1From.avg_buf_msgs     0.000136                       # Average number of messages in buffer
system.ruby.l1_cntrl3.net1From.avg_stall_time 16422.014358                       # Average number of cycles messages are stalled in this MB
system.ruby.l1_cntrl3.net2From.avg_buf_msgs     0.002825                       # Average number of messages in buffer
system.ruby.l1_cntrl3.net2From.avg_stall_time  6576.746692                       # Average number of cycles messages are stalled in this MB
system.ruby.l1_cntrl3.reqTo.avg_buf_msgs     0.005836                       # Average number of messages in buffer
system.ruby.l1_cntrl3.reqTo.avg_stall_time   500.000013                       # Average number of cycles messages are stalled in this MB
system.ruby.l1_cntrl3.respFrom.avg_buf_msgs     0.000172                       # Average number of messages in buffer
system.ruby.l1_cntrl3.respFrom.avg_stall_time 14292.544909                       # Average number of cycles messages are stalled in this MB
system.ruby.l1_cntrl3.respTo.avg_buf_msgs     0.000288                       # Average number of messages in buffer
system.ruby.l1_cntrl3.respTo.avg_stall_time   541.578913                       # Average number of cycles messages are stalled in this MB
system.ruby.latency_hist_seqr::bucket_size            1                      
system.ruby.latency_hist_seqr::max_bucket            9                      
system.ruby.latency_hist_seqr::samples     2518027926                      
system.ruby.latency_hist_seqr            |  2518027926    100.00%    100.00% |           0      0.00%    100.00% |           0      0.00%    100.00% |           0      0.00%    100.00% |           0      0.00%    100.00% |           0      0.00%    100.00% |           0      0.00%    100.00% |           0      0.00%    100.00% |           0      0.00%    100.00% |           0      0.00%    100.00%
system.ruby.latency_hist_seqr::total       2518027926                      
system.ruby.miss_latency_hist_seqr::bucket_size            1                      
system.ruby.miss_latency_hist_seqr::max_bucket            9                      
system.ruby.miss_latency_hist_seqr::samples     25303077                      
system.ruby.miss_latency_hist_seqr       |    25303077    100.00%    100.00% |           0      0.00%    100.00% |           0      0.00%    100.00% |           0      0.00%    100.00% |           0      0.00%    100.00% |           0      0.00%    100.00% |           0      0.00%    100.00% |           0      0.00%    100.00% |           0      0.00%    100.00% |           0      0.00%    100.00%
system.ruby.miss_latency_hist_seqr::total     25303077                      
system.ruby.network.average_flit_latency    16.113430                      
system.ruby.network.average_flit_network_latency    11.749315                      
system.ruby.network.average_flit_queueing_latency     4.364115                      
system.ruby.network.average_flit_vnet_latency |   14.819355                       |   15.574568                       |    5.091932                       |   15.401234                       |    5.599505                      
system.ruby.network.average_flit_vqueue_latency |    6.000048                       |           6                       |    6.000014                       |    1.293735                       |    1.000000                      
system.ruby.network.average_hops             1.029198                      
system.ruby.network.average_packet_latency    14.218419                      
system.ruby.network.average_packet_network_latency    10.778159                      
system.ruby.network.average_packet_queueing_latency     3.440260                      
system.ruby.network.average_packet_vnet_latency |   23.231775                       |   25.609870                       |    5.091932                       |   25.446684                       |    5.267727                      
system.ruby.network.average_packet_vqueue_latency |    6.000223                       |           6                       |    6.000014                       |    1.293735                       |    1.000000                      
system.ruby.network.avg_link_utilization     0.332791                      
system.ruby.network.avg_vc_load          |    0.127065     38.18%     38.18% |    0.014788      4.44%     42.63% |    0.014192      4.26%     46.89% |    0.014194      4.27%     51.15% |    0.011646      3.50%     54.65% |    0.001194      0.36%     55.01% |    0.001190      0.36%     55.37% |    0.001190      0.36%     55.73% |    0.026454      7.95%     63.68% |    0.002982      0.90%     64.57% |    0.002931      0.88%     65.45% |    0.002931      0.88%     66.34% |    0.024992      7.51%     73.84% |    0.005044      1.52%     75.36% |    0.002936      0.88%     76.24% |    0.002823      0.85%     77.09% |    0.056722     17.04%     94.14% |    0.006855      2.06%     96.20% |    0.006334      1.90%     98.10% |    0.006326      1.90%    100.00%
system.ruby.network.avg_vc_load::total       0.332791                      
system.ruby.network.ext_in_link_utilization    215285070                      
system.ruby.network.ext_out_link_utilization    215285070                      
system.ruby.network.flit_network_latency |  1648553968                       |   145309268                       |   116983734                       |   340826382                       |   277778687                      
system.ruby.network.flit_queueing_latency |   667465173                       |    55979442                       |   137846307                       |    28630115                       |    49607728                      
system.ruby.network.flits_injected       |   111243300     51.67%     51.67% |     9329907      4.33%     56.01% |    22974331     10.67%     66.68% |    22129810     10.28%     76.96% |    49607722     23.04%    100.00%
system.ruby.network.flits_injected::total    215285070                      
system.ruby.network.flits_received       |   111243300     51.67%     51.67% |     9329907      4.33%     56.01% |    22974331     10.67%     66.68% |    22129810     10.28%     76.96% |    49607722     23.04%    100.00%
system.ruby.network.flits_received::total    215285070                      
system.ruby.network.int_link_utilization    221570935                      
system.ruby.network.packet_network_latency |   557633236                       |    47787685                       |   116983734                       |   112626057                       |   249394944                      
system.ruby.network.packet_queueing_latency |   144023589                       |    11195922                       |   137846307                       |     5726023                       |    47343944                      
system.ruby.network.packets_injected     |    24003040     23.86%     23.86% |     1865987      1.85%     25.71% |    22974331     22.83%     48.55% |     4425962      4.40%     52.94% |    47343938     47.06%    100.00%
system.ruby.network.packets_injected::total    100613258                      
system.ruby.network.packets_received     |    24003040     23.86%     23.86% |     1865987      1.85%     25.71% |    22974331     22.83%     48.55% |     4425962      4.40%     52.94% |    47343938     47.06%    100.00%
system.ruby.network.packets_received::total    100613258                      
system.ruby.network.routers0.buffer_reads    114509875                      
system.ruby.network.routers0.buffer_writes    114509875                      
system.ruby.network.routers0.crossbar_activity    114509875                      
system.ruby.network.routers0.sw_input_arbiter_activity    114797229                      
system.ruby.network.routers0.sw_output_arbiter_activity    114509875                      
system.ruby.network.routers1.buffer_reads    112877645                      
system.ruby.network.routers1.buffer_writes    112877645                      
system.ruby.network.routers1.crossbar_activity    112877645                      
system.ruby.network.routers1.sw_input_arbiter_activity    113313949                      
system.ruby.network.routers1.sw_output_arbiter_activity    112877645                      
system.ruby.network.routers2.buffer_reads    106185063                      
system.ruby.network.routers2.buffer_writes    106185063                      
system.ruby.network.routers2.crossbar_activity    106185063                      
system.ruby.network.routers2.sw_input_arbiter_activity    106444045                      
system.ruby.network.routers2.sw_output_arbiter_activity    106185063                      
system.ruby.network.routers3.buffer_reads    103283422                      
system.ruby.network.routers3.buffer_writes    103283422                      
system.ruby.network.routers3.crossbar_activity    103283422                      
system.ruby.network.routers3.sw_input_arbiter_activity    103537981                      
system.ruby.network.routers3.sw_output_arbiter_activity    103283422                      
system.ruby.outstanding_req_hist_seqr::bucket_size            1                      
system.ruby.outstanding_req_hist_seqr::max_bucket            9                      
system.ruby.outstanding_req_hist_seqr::samples   2518027926                      
system.ruby.outstanding_req_hist_seqr::mean     1.004222                      
system.ruby.outstanding_req_hist_seqr::gmean     1.002931                      
system.ruby.outstanding_req_hist_seqr::stdev     0.064841                      
system.ruby.outstanding_req_hist_seqr    |           0      0.00%      0.00% |  2507396266     99.58%     99.58% |    10631660      0.42%    100.00% |           0      0.00%    100.00% |           0      0.00%    100.00% |           0      0.00%    100.00% |           0      0.00%    100.00% |           0      0.00%    100.00% |           0      0.00%    100.00% |           0      0.00%    100.00%
system.ruby.outstanding_req_hist_seqr::total   2518027926                      
system.switch_cpus0.Branches                 36284560                       # Number of branches fetched
system.switch_cpus0.committedInsts          325634075                       # Number of instructions committed
system.switch_cpus0.committedOps            592799162                       # Number of ops (including micro ops) committed
system.switch_cpus0.dtb.rdAccesses          125175831                       # TLB accesses on read requests
system.switch_cpus0.dtb.rdMisses               957866                       # TLB misses on read requests
system.switch_cpus0.dtb.wrAccesses            9956214                       # TLB accesses on write requests
system.switch_cpus0.dtb.wrMisses                30170                       # TLB misses on write requests
system.switch_cpus0.idle_fraction            0.029451                       # Percentage of idle cycles
system.switch_cpus0.itb.rdAccesses                  0                       # TLB accesses on read requests
system.switch_cpus0.itb.rdMisses                    0                       # TLB misses on read requests
system.switch_cpus0.itb.wrAccesses          465265069                       # TLB accesses on write requests
system.switch_cpus0.itb.wrMisses                71914                       # TLB misses on write requests
system.switch_cpus0.kern.inst.arm                   0                       # number of arm instructions executed
system.switch_cpus0.kern.inst.quiesce               0                       # number of quiesce instructions executed
system.switch_cpus0.not_idle_fraction        0.970549                       # Percentage of non-idle cycles
system.switch_cpus0.numCycles              1959610664                       # number of cpu cycles simulated
system.switch_cpus0.numWorkItemsCompleted            0                       # number of work items this cpu completed
system.switch_cpus0.numWorkItemsStarted             0                       # number of work items this cpu started
system.switch_cpus0.num_busy_cycles      1901898664.029568                       # Number of busy cycles
system.switch_cpus0.num_cc_register_reads    184154580                       # number of times the CC registers were read
system.switch_cpus0.num_cc_register_writes    122473806                       # number of times the CC registers were written
system.switch_cpus0.num_conditional_control_insts     33626919                       # number of instructions that are conditional controls
system.switch_cpus0.num_fp_alu_accesses     319001322                       # Number of float alu accesses
system.switch_cpus0.num_fp_insts            319001322                       # number of float instructions
system.switch_cpus0.num_fp_register_reads    407784754                       # number of times the floating registers were read
system.switch_cpus0.num_fp_register_writes    314810566                       # number of times the floating registers were written
system.switch_cpus0.num_func_calls             852116                       # number of times a function call or return occured
system.switch_cpus0.num_idle_cycles      57711999.970431                       # Number of idle cycles
system.switch_cpus0.num_int_alu_accesses    364683754                       # Number of integer alu accesses
system.switch_cpus0.num_int_insts           364683754                       # number of integer instructions
system.switch_cpus0.num_int_register_reads    735432265                       # number of times the integer registers were read
system.switch_cpus0.num_int_register_writes    227282930                       # number of times the integer registers were written
system.switch_cpus0.num_load_insts          121560321                       # Number of load instructions
system.switch_cpus0.num_mem_refs            131486642                       # number of memory refs
system.switch_cpus0.num_store_insts           9926321                       # Number of store instructions
system.switch_cpus0.num_vec_alu_accesses            0                       # Number of vector alu accesses
system.switch_cpus0.num_vec_insts                   0                       # number of vector instructions
system.switch_cpus0.num_vec_register_reads            0                       # number of times the vector registers were read
system.switch_cpus0.num_vec_register_writes            0                       # number of times the vector registers were written
system.switch_cpus0.op_class::No_OpClass      2977216      0.50%      0.50% # Class of executed instruction
system.switch_cpus0.op_class::IntAlu        233774482     39.44%     39.94% # Class of executed instruction
system.switch_cpus0.op_class::IntMult           28771      0.00%     39.94% # Class of executed instruction
system.switch_cpus0.op_class::IntDiv            83126      0.01%     39.96% # Class of executed instruction
system.switch_cpus0.op_class::FloatAdd       87719159     14.80%     54.75% # Class of executed instruction
system.switch_cpus0.op_class::FloatCmp              0      0.00%     54.75% # Class of executed instruction
system.switch_cpus0.op_class::FloatCvt           4464      0.00%     54.76% # Class of executed instruction
system.switch_cpus0.op_class::FloatMult             0      0.00%     54.76% # Class of executed instruction
system.switch_cpus0.op_class::FloatMultAcc            0      0.00%     54.76% # Class of executed instruction
system.switch_cpus0.op_class::FloatDiv              0      0.00%     54.76% # Class of executed instruction
system.switch_cpus0.op_class::FloatMisc             0      0.00%     54.76% # Class of executed instruction
system.switch_cpus0.op_class::FloatSqrt             0      0.00%     54.76% # Class of executed instruction
system.switch_cpus0.op_class::SimdAdd              56      0.00%     54.76% # Class of executed instruction
system.switch_cpus0.op_class::SimdAddAcc            0      0.00%     54.76% # Class of executed instruction
system.switch_cpus0.op_class::SimdAlu         2600385      0.44%     55.19% # Class of executed instruction
system.switch_cpus0.op_class::SimdCmp               0      0.00%     55.19% # Class of executed instruction
system.switch_cpus0.op_class::SimdCvt             112      0.00%     55.19% # Class of executed instruction
system.switch_cpus0.op_class::SimdMisc          21171      0.00%     55.20% # Class of executed instruction
system.switch_cpus0.op_class::SimdMult              0      0.00%     55.20% # Class of executed instruction
system.switch_cpus0.op_class::SimdMultAcc            0      0.00%     55.20% # Class of executed instruction
system.switch_cpus0.op_class::SimdShift            24      0.00%     55.20% # Class of executed instruction
system.switch_cpus0.op_class::SimdShiftAcc            0      0.00%     55.20% # Class of executed instruction
system.switch_cpus0.op_class::SimdDiv               0      0.00%     55.20% # Class of executed instruction
system.switch_cpus0.op_class::SimdSqrt              0      0.00%     55.20% # Class of executed instruction
system.switch_cpus0.op_class::SimdFloatAdd     87622185     14.78%     69.98% # Class of executed instruction
system.switch_cpus0.op_class::SimdFloatAlu            0      0.00%     69.98% # Class of executed instruction
system.switch_cpus0.op_class::SimdFloatCmp            0      0.00%     69.98% # Class of executed instruction
system.switch_cpus0.op_class::SimdFloatCvt      2630231      0.44%     70.42% # Class of executed instruction
system.switch_cpus0.op_class::SimdFloatDiv           13      0.00%     70.42% # Class of executed instruction
system.switch_cpus0.op_class::SimdFloatMisc            0      0.00%     70.42% # Class of executed instruction
system.switch_cpus0.op_class::SimdFloatMult     43851126      7.40%     77.82% # Class of executed instruction
system.switch_cpus0.op_class::SimdFloatMultAcc            0      0.00%     77.82% # Class of executed instruction
system.switch_cpus0.op_class::SimdFloatSqrt            0      0.00%     77.82% # Class of executed instruction
system.switch_cpus0.op_class::SimdReduceAdd            0      0.00%     77.82% # Class of executed instruction
system.switch_cpus0.op_class::SimdReduceAlu            0      0.00%     77.82% # Class of executed instruction
system.switch_cpus0.op_class::SimdReduceCmp            0      0.00%     77.82% # Class of executed instruction
system.switch_cpus0.op_class::SimdFloatReduceAdd            0      0.00%     77.82% # Class of executed instruction
system.switch_cpus0.op_class::SimdFloatReduceCmp            0      0.00%     77.82% # Class of executed instruction
system.switch_cpus0.op_class::SimdAes               0      0.00%     77.82% # Class of executed instruction
[...]
system.mem_ctrls1.llc.WriteReq_hits::total       202255                       # number of WriteReq hits
system.mem_ctrls1.llc.WriteReq_accesses::.ruby.dir_cntrl1       202255                       # number of WriteReq accesses(hits+misses)
system.mem_ctrls1.llc.WriteReq_accesses::total       202255                       # number of WriteReq accesses(hits+misses)
system.mem_ctrls1.llc.power_state.pwrStateResidencyTicks::UNDEFINED 101023505088001                       # Cumulative time (in ticks) in various power states
system.mem_ctrls1.llc.tags.tagsinuse      5163.035747                       # Cycle average of tags in use
system.mem_ctrls1.llc.tags.total_refs               0                       # Total number of references to valid blocks.
system.mem_ctrls1.llc.tags.sampled_refs             0                       # Sample count of references to valid blocks.
system.mem_ctrls1.llc.tags.avg_refs               nan                       # Average number of references to valid blocks.
system.mem_ctrls1.llc.tags.warmup_cycle  100043699825500                       # Cycle when the warmup percentage was hit.
system.mem_ctrls1.llc.tags.occ_blocks::.ruby.dir_cntrl1  5163.035747                       # Average occupied blocks per requestor
system.mem_ctrls1.llc.tags.occ_percent::.ruby.dir_cntrl1     0.019695                       # Average percentage of cache occupancy
system.mem_ctrls1.llc.tags.occ_percent::total     0.019695                       # Average percentage of cache occupancy
system.mem_ctrls1.llc.tags.occ_task_id_blocks::1024         7138                       # Occupied blocks per task id
system.mem_ctrls1.llc.tags.age_task_id_blocks_1024::0            8                       # Occupied blocks per task id
system.mem_ctrls1.llc.tags.age_task_id_blocks_1024::1          105                       # Occupied blocks per task id
system.mem_ctrls1.llc.tags.age_task_id_blocks_1024::2          469                       # Occupied blocks per task id
system.mem_ctrls1.llc.tags.age_task_id_blocks_1024::3         1287                       # Occupied blocks per task id
system.mem_ctrls1.llc.tags.age_task_id_blocks_1024::4         5269                       # Occupied blocks per task id
system.mem_ctrls1.llc.tags.occ_task_id_percent::1024     0.027229                       # Percentage of cache occupancy per task id
system.mem_ctrls1.llc.tags.tag_accesses      96727634                       # Number of tag accesses
system.mem_ctrls1.llc.tags.data_accesses      6045031                       # Number of data accesses
system.mem_ctrls1.llc.tags.power_state.pwrStateResidencyTicks::UNDEFINED 101023505088001                       # Cumulative time (in ticks) in various power states
system.mem_ctrls1.rank1.actEnergy             7404180                       # Energy for activate commands per rank (pJ)
system.mem_ctrls1.rank1.preEnergy             3924030                       # Energy for precharge commands per rank (pJ)
system.mem_ctrls1.rank1.readEnergy           22705200                       # Energy for read commands per rank (pJ)
system.mem_ctrls1.rank1.writeEnergy                 0                       # Energy for write commands per rank (pJ)
system.mem_ctrls1.rank1.refreshEnergy    77344453680.000015                       # Energy for refresh commands per rank (pJ)
system.mem_ctrls1.rank1.actBackEnergy     15594657930                       # Energy for active background per rank (pJ)
system.mem_ctrls1.rank1.preBackEnergy    363112897440                       # Energy for precharge background per rank (pJ)
system.mem_ctrls1.rank1.actPowerDownEnergy            0                       # Energy for active power-down per rank (pJ)
system.mem_ctrls1.rank1.prePowerDownEnergy            0                       # Energy for precharge power-down per rank (pJ)
system.mem_ctrls1.rank1.selfRefreshEnergy            0                       # Energy for self refresh per rank (pJ)
system.mem_ctrls1.rank1.totalEnergy      456086042460                       # Total energy per rank (pJ)
system.mem_ctrls1.rank1.averagePower       465.486385                       # Core power per rank (mW)
system.mem_ctrls1.rank1.totalIdleTime               0                       # Total Idle time Per DRAM Rank
system.mem_ctrls1.rank1.memoryStateTime::IDLE 943868333500                       # Time in different power states
system.mem_ctrls1.rank1.memoryStateTime::REF  32717620000                       # Time in different power states
system.mem_ctrls1.rank1.memoryStateTime::SREF            0                       # Time in different power states
system.mem_ctrls1.rank1.memoryStateTime::PRE_PDN            0                       # Time in different power states
system.mem_ctrls1.rank1.memoryStateTime::ACT   3219379001                       # Time in different power states
system.mem_ctrls1.rank1.memoryStateTime::ACT_PDN            0                       # Time in different power states
system.mem_ctrls1.rank0.actEnergy             9617580                       # Energy for activate commands per rank (pJ)
system.mem_ctrls1.rank0.preEnergy             5108070                       # Energy for precharge commands per rank (pJ)
system.mem_ctrls1.rank0.readEnergy           28260120                       # Energy for read commands per rank (pJ)
system.mem_ctrls1.rank0.writeEnergy                 0                       # Energy for write commands per rank (pJ)
system.mem_ctrls1.rank0.refreshEnergy    77344453680.000015                       # Energy for refresh commands per rank (pJ)
system.mem_ctrls1.rank0.actBackEnergy     15852847410                       # Energy for active background per rank (pJ)
system.mem_ctrls1.rank0.preBackEnergy    362895433440                       # Energy for precharge background per rank (pJ)
system.mem_ctrls1.rank0.actPowerDownEnergy            0                       # Energy for active power-down per rank (pJ)
system.mem_ctrls1.rank0.prePowerDownEnergy            0                       # Energy for precharge power-down per rank (pJ)
system.mem_ctrls1.rank0.selfRefreshEnergy            0                       # Energy for self refresh per rank (pJ)
system.mem_ctrls1.rank0.totalEnergy      456135720300                       # Total energy per rank (pJ)
system.mem_ctrls1.rank0.averagePower       465.537087                       # Core power per rank (mW)
system.mem_ctrls1.rank0.totalIdleTime               0                       # Total Idle time Per DRAM Rank
system.mem_ctrls1.rank0.memoryStateTime::IDLE 943300679750                       # Time in different power states
system.mem_ctrls1.rank0.memoryStateTime::REF  32717620000                       # Time in different power states
system.mem_ctrls1.rank0.memoryStateTime::SREF            0                       # Time in different power states
system.mem_ctrls1.rank0.memoryStateTime::PRE_PDN            0                       # Time in different power states
system.mem_ctrls1.rank0.memoryStateTime::ACT   3787032751                       # Time in different power states
system.mem_ctrls1.rank0.memoryStateTime::ACT_PDN            0                       # Time in different power states
system.mem_ctrls1.power_state.pwrStateResidencyTicks::UNDEFINED 101023505088001                       # Cumulative time (in ticks) in various power states
system.cpu_voltage_domain.voltage                   1                       # Voltage in Volts
system.iobus.trans_dist::ReadReq                 1334                       # Transaction distribution
system.iobus.trans_dist::ReadResp                1334                       # Transaction distribution
system.iobus.trans_dist::WriteReq                8243                       # Transaction distribution
system.iobus.trans_dist::WriteResp               8243                       # Transaction distribution
system.iobus.pkt_count_system.pc.south_bridge.io_apic.int_master::system.ruby.l1_cntrl1.sequencer.pio-slave-port          214                       # Packet count per connected master and slave (bytes)
system.iobus.pkt_count_system.pc.south_bridge.io_apic.int_master::total          214                       # Packet count per connected master and slave (bytes)
system.iobus.pkt_count_system.ruby.l1_cntrl0.sequencer.mem-master-port::system.ruby.l1_cntrl0.sequencer.pio-slave-port         3926                       # Packet count per connected master and slave (bytes)
system.iobus.pkt_count_system.ruby.l1_cntrl0.sequencer.mem-master-port::system.ruby.l1_cntrl1.sequencer.pio-slave-port          162                       # Packet count per connected master and slave (bytes)
system.iobus.pkt_count_system.ruby.l1_cntrl0.sequencer.mem-master-port::system.ruby.l1_cntrl2.sequencer.pio-slave-port          152                       # Packet count per connected master and slave (bytes)
system.iobus.pkt_count_system.ruby.l1_cntrl0.sequencer.mem-master-port::system.ruby.l1_cntrl3.sequencer.pio-slave-port          172                       # Packet count per connected master and slave (bytes)
system.iobus.pkt_count_system.ruby.l1_cntrl0.sequencer.mem-master-port::total         4412                       # Packet count per connected master and slave (bytes)
system.iobus.pkt_count_system.ruby.l1_cntrl1.sequencer.mem-master-port::system.pc.com_1.pio          854                       # Packet count per connected master and slave (bytes)
system.iobus.pkt_count_system.ruby.l1_cntrl1.sequencer.mem-master-port::system.ruby.l1_cntrl0.sequencer.pio-slave-port          174                       # Packet count per connected master and slave (bytes)
system.iobus.pkt_count_system.ruby.l1_cntrl1.sequencer.mem-master-port::system.ruby.l1_cntrl1.sequencer.pio-slave-port         3690                       # Packet count per connected master and slave (bytes)
system.iobus.pkt_count_system.ruby.l1_cntrl1.sequencer.mem-master-port::system.ruby.l1_cntrl2.sequencer.pio-slave-port          116                       # Packet count per connected master and slave (bytes)
system.iobus.pkt_count_system.ruby.l1_cntrl1.sequencer.mem-master-port::system.ruby.l1_cntrl3.sequencer.pio-slave-port          118                       # Packet count per connected master and slave (bytes)
system.iobus.pkt_count_system.ruby.l1_cntrl1.sequencer.mem-master-port::total         4952                       # Packet count per connected master and slave (bytes)
system.iobus.pkt_count_system.ruby.l1_cntrl2.sequencer.mem-master-port::system.pc.com_1.pio            4                       # Packet count per connected master and slave (bytes)
system.iobus.pkt_count_system.ruby.l1_cntrl2.sequencer.mem-master-port::system.ruby.l1_cntrl0.sequencer.pio-slave-port          240                       # Packet count per connected master and slave (bytes)
system.iobus.pkt_count_system.ruby.l1_cntrl2.sequencer.mem-master-port::system.ruby.l1_cntrl1.sequencer.pio-slave-port          232                       # Packet count per connected master and slave (bytes)
system.iobus.pkt_count_system.ruby.l1_cntrl2.sequencer.mem-master-port::system.ruby.l1_cntrl2.sequencer.pio-slave-port         4608                       # Packet count per connected master and slave (bytes)
system.iobus.pkt_count_system.ruby.l1_cntrl2.sequencer.mem-master-port::system.ruby.l1_cntrl3.sequencer.pio-slave-port          268                       # Packet count per connected master and slave (bytes)
system.iobus.pkt_count_system.ruby.l1_cntrl2.sequencer.mem-master-port::total         5352                       # Packet count per connected master and slave (bytes)
system.iobus.pkt_count_system.ruby.l1_cntrl3.sequencer.mem-master-port::system.ruby.l1_cntrl0.sequencer.pio-slave-port          140                       # Packet count per connected master and slave (bytes)
system.iobus.pkt_count_system.ruby.l1_cntrl3.sequencer.mem-master-port::system.ruby.l1_cntrl1.sequencer.pio-slave-port          132                       # Packet count per connected master and slave (bytes)
system.iobus.pkt_count_system.ruby.l1_cntrl3.sequencer.mem-master-port::system.ruby.l1_cntrl2.sequencer.pio-slave-port          164                       # Packet count per connected master and slave (bytes)
system.iobus.pkt_count_system.ruby.l1_cntrl3.sequencer.mem-master-port::system.ruby.l1_cntrl3.sequencer.pio-slave-port         3788                       # Packet count per connected master and slave (bytes)
system.iobus.pkt_count_system.ruby.l1_cntrl3.sequencer.mem-master-port::total         4224                       # Packet count per connected master and slave (bytes)
system.iobus.pkt_count::total                   19154                       # Packet count per connected master and slave (bytes)
system.iobus.pkt_size_system.pc.south_bridge.io_apic.int_master::system.ruby.l1_cntrl1.sequencer.pio-slave-port          428                       # Cumulative packet size per connected master and slave (bytes)
system.iobus.pkt_size_system.pc.south_bridge.io_apic.int_master::total          428                       # Cumulative packet size per connected master and slave (bytes)
system.iobus.pkt_size_system.ruby.l1_cntrl0.sequencer.mem-master-port::system.ruby.l1_cntrl0.sequencer.pio-slave-port         7852                       # Cumulative packet size per connected master and slave (bytes)
system.iobus.pkt_size_system.ruby.l1_cntrl0.sequencer.mem-master-port::system.ruby.l1_cntrl1.sequencer.pio-slave-port          324                       # Cumulative packet size per connected master and slave (bytes)
system.iobus.pkt_size_system.ruby.l1_cntrl0.sequencer.mem-master-port::system.ruby.l1_cntrl2.sequencer.pio-slave-port          304                       # Cumulative packet size per connected master and slave (bytes)
system.iobus.pkt_size_system.ruby.l1_cntrl0.sequencer.mem-master-port::system.ruby.l1_cntrl3.sequencer.pio-slave-port          344                       # Cumulative packet size per connected master and slave (bytes)
system.iobus.pkt_size_system.ruby.l1_cntrl0.sequencer.mem-master-port::total         8824                       # Cumulative packet size per connected master and slave (bytes)
system.iobus.pkt_size_system.ruby.l1_cntrl1.sequencer.mem-master-port::system.pc.com_1.pio          427                       # Cumulative packet size per connected master and slave (bytes)
system.iobus.pkt_size_system.ruby.l1_cntrl1.sequencer.mem-master-port::system.ruby.l1_cntrl0.sequencer.pio-slave-port          348                       # Cumulative packet size per connected master and slave (bytes)
system.iobus.pkt_size_system.ruby.l1_cntrl1.sequencer.mem-master-port::system.ruby.l1_cntrl1.sequencer.pio-slave-port         7380                       # Cumulative packet size per connected master and slave (bytes)
system.iobus.pkt_size_system.ruby.l1_cntrl1.sequencer.mem-master-port::system.ruby.l1_cntrl2.sequencer.pio-slave-port          232                       # Cumulative packet size per connected master and slave (bytes)
system.iobus.pkt_size_system.ruby.l1_cntrl1.sequencer.mem-master-port::system.ruby.l1_cntrl3.sequencer.pio-slave-port          236                       # Cumulative packet size per connected master and slave (bytes)
system.iobus.pkt_size_system.ruby.l1_cntrl1.sequencer.mem-master-port::total         8623                       # Cumulative packet size per connected master and slave (bytes)
system.iobus.pkt_size_system.ruby.l1_cntrl2.sequencer.mem-master-port::system.pc.com_1.pio            2                       # Cumulative packet size per connected master and slave (bytes)
system.iobus.pkt_size_system.ruby.l1_cntrl2.sequencer.mem-master-port::system.ruby.l1_cntrl0.sequencer.pio-slave-port          480                       # Cumulative packet size per connected master and slave (bytes)
system.iobus.pkt_size_system.ruby.l1_cntrl2.sequencer.mem-master-port::system.ruby.l1_cntrl1.sequencer.pio-slave-port          464                       # Cumulative packet size per connected master and slave (bytes)
system.iobus.pkt_size_system.ruby.l1_cntrl2.sequencer.mem-master-port::system.ruby.l1_cntrl2.sequencer.pio-slave-port         9216                       # Cumulative packet size per connected master and slave (bytes)
system.iobus.pkt_size_system.ruby.l1_cntrl2.sequencer.mem-master-port::system.ruby.l1_cntrl3.sequencer.pio-slave-port          536                       # Cumulative packet size per connected master and slave (bytes)
system.iobus.pkt_size_system.ruby.l1_cntrl2.sequencer.mem-master-port::total        10698                       # Cumulative packet size per connected master and slave (bytes)
system.iobus.pkt_size_system.ruby.l1_cntrl3.sequencer.mem-master-port::system.ruby.l1_cntrl0.sequencer.pio-slave-port          280                       # Cumulative packet size per connected master and slave (bytes)
system.iobus.pkt_size_system.ruby.l1_cntrl3.sequencer.mem-master-port::system.ruby.l1_cntrl1.sequencer.pio-slave-port          264                       # Cumulative packet size per connected master and slave (bytes)
system.iobus.pkt_size_system.ruby.l1_cntrl3.sequencer.mem-master-port::system.ruby.l1_cntrl2.sequencer.pio-slave-port          328                       # Cumulative packet size per connected master and slave (bytes)
system.iobus.pkt_size_system.ruby.l1_cntrl3.sequencer.mem-master-port::system.ruby.l1_cntrl3.sequencer.pio-slave-port         7576                       # Cumulative packet size per connected master and slave (bytes)
system.iobus.pkt_size_system.ruby.l1_cntrl3.sequencer.mem-master-port::total         8448                       # Cumulative packet size per connected master and slave (bytes)
system.iobus.pkt_size::total                    37021                       # Cumulative packet size per connected master and slave (bytes)
system.iobus.power_state.pwrStateResidencyTicks::UNDEFINED 101023505088001                       # Cumulative time (in ticks) in various power states
system.iobus.reqLayer19.occupancy             5518543                       # Layer occupancy (ticks)
system.iobus.reqLayer19.utilization               0.0                       # Layer utilization (%)
system.iobus.reqLayer17.occupancy             5113063                       # Layer occupancy (ticks)
system.iobus.reqLayer17.utilization               0.0                       # Layer utilization (%)
system.iobus.reqLayer12.occupancy              546000                       # Layer occupancy (ticks)
system.iobus.reqLayer12.utilization               0.0                       # Layer utilization (%)
system.iobus.reqLayer18.occupancy             5071097                       # Layer occupancy (ticks)
system.iobus.reqLayer18.utilization               0.0                       # Layer utilization (%)
system.iobus.respLayer9.occupancy             3270000                       # Layer occupancy (ticks)
system.iobus.respLayer9.utilization               0.0                       # Layer utilization (%)
system.iobus.respLayer5.occupancy             3916000                       # Layer occupancy (ticks)
system.iobus.respLayer5.utilization               0.0                       # Layer utilization (%)
system.iobus.respLayer7.occupancy             4197000                       # Layer occupancy (ticks)
system.iobus.respLayer7.utilization               0.0                       # Layer utilization (%)
system.iobus.respLayer0.occupancy              160000                       # Layer occupancy (ticks)
system.iobus.respLayer0.utilization               0.0                       # Layer utilization (%)
system.iobus.respLayer3.occupancy             3421000                       # Layer occupancy (ticks)
system.iobus.respLayer3.utilization               0.0                       # Layer utilization (%)
system.iobus.reqLayer20.occupancy             5014035                       # Layer occupancy (ticks)
system.iobus.reqLayer20.utilization               0.0                       # Layer utilization (%)

---------- End Simulation Statistics   ----------
