
---------- Begin Simulation Statistics ----------
final_tick                               95048621066000                       # Number of ticks from beginning of simulation (restored from checkpoints and never reset)
host_inst_rate                                 196515                       # Simulator instruction rate (inst/s)
host_mem_usage                                9014100                       # Number of bytes of host memory used
host_op_rate                                   432046                       # Simulator op (including micro ops) rate (op/s)
host_seconds                                 14781.10                       # Real time elapsed on the host
host_tick_rate                             6430415356                       # Simulator tick rate (ticks/s)
sim_freq                                 1000000000000                       # Frequency of simulated ticks
sim_insts                                  2904704410                       # Number of instructions simulated
sim_ops                                    6386114474                       # Number of ops (including micro ops) simulated
sim_seconds                                 95.048621                       # Number of seconds simulated
sim_ticks                                95048621066000                       # Number of ticks simulated
system.cpu0.Branches                        323696148                       # Number of branches fetched
system.cpu0.committedInsts                 1142595504                       # Number of instructions committed
system.cpu0.committedOps                   2485485390                       # Number of ops (including micro ops) committed
system.cpu0.dtb.rdAccesses                  299416245                       # TLB accesses on read requests
system.cpu0.dtb.rdMisses                      1708139                       # TLB misses on read requests
system.cpu0.dtb.wrAccesses                  186855962                       # TLB accesses on write requests
system.cpu0.dtb.wrMisses                       184433                       # TLB misses on write requests
system.cpu0.idle_fraction                    0.960542                       # Percentage of idle cycles
system.cpu0.itb.rdAccesses                          0                       # TLB accesses on read requests
system.cpu0.itb.rdMisses                            0                       # TLB misses on read requests
system.cpu0.itb.wrAccesses                 1458069281                       # TLB accesses on write requests
system.cpu0.itb.wrMisses                       622399                       # TLB misses on write requests
system.cpu0.kern.inst.arm                           0                       # number of arm instructions executed
system.cpu0.kern.inst.quiesce                       0                       # number of quiesce instructions executed
system.cpu0.not_idle_fraction                0.039458                       # Percentage of non-idle cycles
system.cpu0.numCycles                    190095444517                       # number of cpu cycles simulated
system.cpu0.numWorkItemsCompleted                   0                       # number of work items this cpu completed
system.cpu0.numWorkItemsStarted                     0                       # number of work items this cpu started
system.cpu0.num_busy_cycles              7500710678.419991                       # Number of busy cycles
system.cpu0.num_cc_register_reads          1392715643                       # number of times the CC registers were read
system.cpu0.num_cc_register_writes          772155070                       # number of times the CC registers were written
system.cpu0.num_conditional_control_insts    203523116                       # number of instructions that are conditional controls
system.cpu0.num_fp_alu_accesses              15214057                       # Number of float alu accesses
system.cpu0.num_fp_insts                     15214057                       # number of float instructions
system.cpu0.num_fp_register_reads            22203073                       # number of times the floating registers were read
system.cpu0.num_fp_register_writes           11420448                       # number of times the floating registers were written
system.cpu0.num_func_calls                   58500006                       # number of times a function call or return occured
system.cpu0.num_idle_cycles              182594733838.580017                       # Number of idle cycles
system.cpu0.num_int_alu_accesses           2366384346                       # Number of integer alu accesses
system.cpu0.num_int_insts                  2366384346                       # number of integer instructions
system.cpu0.num_int_register_reads         4623861017                       # number of times the integer registers were read
system.cpu0.num_int_register_writes        1924305284                       # number of times the integer registers were written
system.cpu0.num_load_insts                  297491907                       # Number of load instructions
system.cpu0.num_mem_refs                    484002273                       # number of memory refs
system.cpu0.num_store_insts                 186510366                       # Number of store instructions
system.cpu0.num_vec_alu_accesses                    0                       # Number of vector alu accesses
system.cpu0.num_vec_insts                           0                       # number of vector instructions
system.cpu0.num_vec_register_reads                  0                       # number of times the vector registers were read
system.cpu0.num_vec_register_writes                 0                       # number of times the vector registers were written
system.cpu0.op_class::No_OpClass             51330574      2.07%      2.07% # Class of executed instruction
system.cpu0.op_class::IntAlu               1925392398     77.46%     79.53% # Class of executed instruction
system.cpu0.op_class::IntMult                 7574780      0.30%     79.83% # Class of executed instruction
system.cpu0.op_class::IntDiv                  7967642      0.32%     80.15% # Class of executed instruction
system.cpu0.op_class::FloatAdd                 386622      0.02%     80.17% # Class of executed instruction
system.cpu0.op_class::FloatCmp                      0      0.00%     80.17% # Class of executed instruction
system.cpu0.op_class::FloatCvt                  29888      0.00%     80.17% # Class of executed instruction
system.cpu0.op_class::FloatMult                     0      0.00%     80.17% # Class of executed instruction
system.cpu0.op_class::FloatMultAcc                  0      0.00%     80.17% # Class of executed instruction
system.cpu0.op_class::FloatDiv                      0      0.00%     80.17% # Class of executed instruction
system.cpu0.op_class::FloatMisc                     0      0.00%     80.17% # Class of executed instruction
system.cpu0.op_class::FloatSqrt                     0      0.00%     80.17% # Class of executed instruction
system.cpu0.op_class::SimdAdd                  517298      0.02%     80.19% # Class of executed instruction
system.cpu0.op_class::SimdAddAcc                    0      0.00%     80.19% # Class of executed instruction
system.cpu0.op_class::SimdAlu                 2982935      0.12%     80.31% # Class of executed instruction
system.cpu0.op_class::SimdCmp                   20716      0.00%     80.31% # Class of executed instruction
system.cpu0.op_class::SimdCvt                 2419130      0.10%     80.41% # Class of executed instruction
system.cpu0.op_class::SimdMisc                2684756      0.11%     80.52% # Class of executed instruction
system.cpu0.op_class::SimdMult                      0      0.00%     80.52% # Class of executed instruction
system.cpu0.op_class::SimdMultAcc                   0      0.00%     80.52% # Class of executed instruction
system.cpu0.op_class::SimdShift                269588      0.01%     80.53% # Class of executed instruction
system.cpu0.op_class::SimdShiftAcc                  0      0.00%     80.53% # Class of executed instruction
system.cpu0.op_class::SimdDiv                       0      0.00%     80.53% # Class of executed instruction
system.cpu0.op_class::SimdSqrt                      0      0.00%     80.53% # Class of executed instruction
system.cpu0.op_class::SimdFloatAdd                711      0.00%     80.53% # Class of executed instruction
system.cpu0.op_class::SimdFloatAlu                  0      0.00%     80.53% # Class of executed instruction
system.cpu0.op_class::SimdFloatCmp                  1      0.00%     80.53% # Class of executed instruction
system.cpu0.op_class::SimdFloatCvt               2006      0.00%     80.53% # Class of executed instruction
system.cpu0.op_class::SimdFloatDiv                 10      0.00%     80.53% # Class of executed instruction
system.cpu0.op_class::SimdFloatMisc                 0      0.00%     80.53% # Class of executed instruction
system.cpu0.op_class::SimdFloatMult               736      0.00%     80.53% # Class of executed instruction
system.cpu0.op_class::SimdFloatMultAcc              0      0.00%     80.53% # Class of executed instruction
system.cpu0.op_class::SimdFloatSqrt                 0      0.00%     80.53% # Class of executed instruction
system.cpu0.op_class::SimdReduceAdd                 0      0.00%     80.53% # Class of executed instruction
system.cpu0.op_class::SimdReduceAlu                 0      0.00%     80.53% # Class of executed instruction
system.cpu0.op_class::SimdReduceCmp                 0      0.00%     80.53% # Class of executed instruction
system.cpu0.op_class::SimdFloatReduceAdd            0      0.00%     80.53% # Class of executed instruction
system.cpu0.op_class::SimdFloatReduceCmp            0      0.00%     80.53% # Class of executed instruction
system.cpu0.op_class::SimdAes                       0      0.00%     80.53% # Class of executed instruction
system.cpu0.op_class::SimdAesMix                    0      0.00%     80.53% # Class of executed instruction
system.cpu0.op_class::SimdSha1Hash                  0      0.00%     80.53% # Class of executed instruction
system.cpu0.op_class::SimdSha1Hash2                 0      0.00%     80.53% # Class of executed instruction
system.cpu0.op_class::SimdSha256Hash                0      0.00%     80.53% # Class of executed instruction
system.cpu0.op_class::SimdSha256Hash2               0      0.00%     80.53% # Class of executed instruction
system.cpu0.op_class::SimdShaSigma2                 0      0.00%     80.53% # Class of executed instruction
system.cpu0.op_class::SimdShaSigma3                 0      0.00%     80.53% # Class of executed instruction
system.cpu0.op_class::SimdPredAlu                   0      0.00%     80.53% # Class of executed instruction
system.cpu0.op_class::MemRead               294257998     11.84%     92.37% # Class of executed instruction
system.cpu0.op_class::MemWrite              184384451      7.42%     99.78% # Class of executed instruction
system.cpu0.op_class::FloatMemRead            3233909      0.13%     99.91% # Class of executed instruction
system.cpu0.op_class::FloatMemWrite           2125915      0.09%    100.00% # Class of executed instruction
system.cpu0.op_class::IprAccess                     0      0.00%    100.00% # Class of executed instruction
system.cpu0.op_class::InstPrefetch                  0      0.00%    100.00% # Class of executed instruction
system.cpu0.op_class::total                2485582064                       # Class of executed instruction
system.cpu1.Branches                        138898966                       # Number of branches fetched
system.cpu1.committedInsts                  478503666                       # Number of instructions committed
system.cpu1.committedOps                   1104917064                       # Number of ops (including micro ops) committed
system.cpu1.dtb.rdAccesses                  144951604                       # TLB accesses on read requests
system.cpu1.dtb.rdMisses                      1081590                       # TLB misses on read requests
system.cpu1.dtb.wrAccesses                  107450390                       # TLB accesses on write requests
system.cpu1.dtb.wrMisses                       142393                       # TLB misses on write requests
system.cpu1.idle_fraction                    0.978206                       # Percentage of idle cycles
system.cpu1.itb.rdAccesses                          0                       # TLB accesses on read requests
system.cpu1.itb.rdMisses                            0                       # TLB misses on read requests
system.cpu1.itb.wrAccesses                  629624758                       # TLB accesses on write requests
system.cpu1.itb.wrMisses                       415036                       # TLB misses on write requests
system.cpu1.kern.inst.arm                           0                       # number of arm instructions executed
system.cpu1.kern.inst.quiesce                       0                       # number of quiesce instructions executed
system.cpu1.not_idle_fraction                0.021794                       # Percentage of non-idle cycles
system.cpu1.numCycles                    190096552783                       # number of cpu cycles simulated
system.cpu1.numWorkItemsCompleted                   0                       # number of work items this cpu completed
system.cpu1.numWorkItemsStarted                     0                       # number of work items this cpu started
system.cpu1.num_busy_cycles              4142979089.812114                       # Number of busy cycles
system.cpu1.num_cc_register_reads           639451343                       # number of times the CC registers were read
system.cpu1.num_cc_register_writes          306282605                       # number of times the CC registers were written
system.cpu1.num_conditional_control_insts     87295621                       # number of instructions that are conditional controls
system.cpu1.num_fp_alu_accesses              12380629                       # Number of float alu accesses
system.cpu1.num_fp_insts                     12380629                       # number of float instructions
system.cpu1.num_fp_register_reads            18355790                       # number of times the floating registers were read
system.cpu1.num_fp_register_writes            8553949                       # number of times the floating registers were written
system.cpu1.num_func_calls                   40762922                       # number of times a function call or return occured
system.cpu1.num_idle_cycles              185953573693.187897                       # Number of idle cycles
system.cpu1.num_int_alu_accesses           1061216604                       # Number of integer alu accesses
system.cpu1.num_int_insts                  1061216604                       # number of integer instructions
system.cpu1.num_int_register_reads         2166153689                       # number of times the integer registers were read
system.cpu1.num_int_register_writes         849372887                       # number of times the integer registers were written
system.cpu1.num_load_insts                  143901911                       # Number of load instructions
system.cpu1.num_mem_refs                    251238391                       # number of memory refs
system.cpu1.num_store_insts                 107336480                       # Number of store instructions
system.cpu1.num_vec_alu_accesses                    0                       # Number of vector alu accesses
system.cpu1.num_vec_insts                           0                       # number of vector instructions
system.cpu1.num_vec_register_reads                  0                       # number of times the vector registers were read
system.cpu1.num_vec_register_writes                 0                       # number of times the vector registers were written
system.cpu1.op_class::No_OpClass             30464196      2.76%      2.76% # Class of executed instruction
system.cpu1.op_class::IntAlu                810991302     73.40%     76.15% # Class of executed instruction
system.cpu1.op_class::IntMult                 1593995      0.14%     76.30% # Class of executed instruction
system.cpu1.op_class::IntDiv                  3442385      0.31%     76.61% # Class of executed instruction
system.cpu1.op_class::FloatAdd                 193409      0.02%     76.63% # Class of executed instruction
system.cpu1.op_class::FloatCmp                      0      0.00%     76.63% # Class of executed instruction
system.cpu1.op_class::FloatCvt                  24544      0.00%     76.63% # Class of executed instruction
system.cpu1.op_class::FloatMult                     0      0.00%     76.63% # Class of executed instruction
system.cpu1.op_class::FloatMultAcc                  0      0.00%     76.63% # Class of executed instruction
system.cpu1.op_class::FloatDiv                      0      0.00%     76.63% # Class of executed instruction
system.cpu1.op_class::FloatMisc                     0      0.00%     76.63% # Class of executed instruction
system.cpu1.op_class::FloatSqrt                     0      0.00%     76.63% # Class of executed instruction
system.cpu1.op_class::SimdAdd                  578124      0.05%     76.68% # Class of executed instruction
system.cpu1.op_class::SimdAddAcc                    0      0.00%     76.68% # Class of executed instruction
system.cpu1.op_class::SimdAlu                 2074392      0.19%     76.87% # Class of executed instruction
system.cpu1.op_class::SimdCmp                   21652      0.00%     76.87% # Class of executed instruction
system.cpu1.op_class::SimdCvt                 2033564      0.18%     77.06% # Class of executed instruction
system.cpu1.op_class::SimdMisc                1976751      0.18%     77.23% # Class of executed instruction
system.cpu1.op_class::SimdMult                      0      0.00%     77.23% # Class of executed instruction
system.cpu1.op_class::SimdMultAcc                   0      0.00%     77.23% # Class of executed instruction
system.cpu1.op_class::SimdShift                308991      0.03%     77.26% # Class of executed instruction
system.cpu1.op_class::SimdShiftAcc                  0      0.00%     77.26% # Class of executed instruction
system.cpu1.op_class::SimdDiv                       0      0.00%     77.26% # Class of executed instruction
system.cpu1.op_class::SimdSqrt                      0      0.00%     77.26% # Class of executed instruction
system.cpu1.op_class::SimdFloatAdd                 25      0.00%     77.26% # Class of executed instruction
system.cpu1.op_class::SimdFloatAlu                  0      0.00%     77.26% # Class of executed instruction
system.cpu1.op_class::SimdFloatCmp                  0      0.00%     77.26% # Class of executed instruction
system.cpu1.op_class::SimdFloatCvt                105      0.00%     77.26% # Class of executed instruction
system.cpu1.op_class::SimdFloatDiv                  6      0.00%     77.26% # Class of executed instruction
system.cpu1.op_class::SimdFloatMisc                 0      0.00%     77.26% # Class of executed instruction
system.cpu1.op_class::SimdFloatMult                 6      0.00%     77.26% # Class of executed instruction
system.cpu1.op_class::SimdFloatMultAcc              0      0.00%     77.26% # Class of executed instruction
system.cpu1.op_class::SimdFloatSqrt                 0      0.00%     77.26% # Class of executed instruction
system.cpu1.op_class::SimdReduceAdd                 0      0.00%     77.26% # Class of executed instruction
system.cpu1.op_class::SimdReduceAlu                 0      0.00%     77.26% # Class of executed instruction
system.cpu1.op_class::SimdReduceCmp                 0      0.00%     77.26% # Class of executed instruction
system.cpu1.op_class::SimdFloatReduceAdd            0      0.00%     77.26% # Class of executed instruction
system.cpu1.op_class::SimdFloatReduceCmp            0      0.00%     77.26% # Class of executed instruction
system.cpu1.op_class::SimdAes                       0      0.00%     77.26% # Class of executed instruction
system.cpu1.op_class::SimdAesMix                    0      0.00%     77.26% # Class of executed instruction
system.cpu1.op_class::SimdSha1Hash                  0      0.00%     77.26% # Class of executed instruction
system.cpu1.op_class::SimdSha1Hash2                 0      0.00%     77.26% # Class of executed instruction
system.cpu1.op_class::SimdSha256Hash                0      0.00%     77.26% # Class of executed instruction
system.cpu1.op_class::SimdSha256Hash2               0      0.00%     77.26% # Class of executed instruction
system.cpu1.op_class::SimdShaSigma2                 0      0.00%     77.26% # Class of executed instruction
system.cpu1.op_class::SimdShaSigma3                 0      0.00%     77.26% # Class of executed instruction
system.cpu1.op_class::SimdPredAlu                   0      0.00%     77.26% # Class of executed instruction
system.cpu1.op_class::MemRead               141535199     12.81%     90.07% # Class of executed instruction
system.cpu1.op_class::MemWrite              104859276      9.49%     99.56% # Class of executed instruction
system.cpu1.op_class::FloatMemRead            2366712      0.21%     99.78% # Class of executed instruction
system.cpu1.op_class::FloatMemWrite           2477204      0.22%    100.00% # Class of executed instruction
system.cpu1.op_class::IprAccess                     0      0.00%    100.00% # Class of executed instruction
system.cpu1.op_class::InstPrefetch                  0      0.00%    100.00% # Class of executed instruction
system.cpu1.op_class::total                1104941838                       # Class of executed instruction
system.cpu2.Branches                        169324068                       # Number of branches fetched
system.cpu2.committedInsts                  631300954                       # Number of instructions committed
system.cpu2.committedOps                   1390629900                       # Number of ops (including micro ops) committed
system.cpu2.dtb.rdAccesses                  182842185                       # TLB accesses on read requests
system.cpu2.dtb.rdMisses                      1571868                       # TLB misses on read requests
system.cpu2.dtb.wrAccesses                  121560898                       # TLB accesses on write requests
system.cpu2.dtb.wrMisses                       197272                       # TLB misses on write requests
system.cpu2.idle_fraction                    0.971766                       # Percentage of idle cycles
system.cpu2.itb.rdAccesses                          0                       # TLB accesses on read requests
system.cpu2.itb.rdMisses                            0                       # TLB misses on read requests
system.cpu2.itb.wrAccesses                  831180466                       # TLB accesses on write requests
system.cpu2.itb.wrMisses                       675407                       # TLB misses on write requests
system.cpu2.kern.inst.arm                           0                       # number of arm instructions executed
system.cpu2.kern.inst.quiesce                       0                       # number of quiesce instructions executed
system.cpu2.not_idle_fraction                0.028234                       # Percentage of non-idle cycles
system.cpu2.numCycles                    190097241919                       # number of cpu cycles simulated
system.cpu2.numWorkItemsCompleted                   0                       # number of work items this cpu completed
system.cpu2.numWorkItemsStarted                     0                       # number of work items this cpu started
system.cpu2.num_busy_cycles              5367298204.923998                       # Number of busy cycles
system.cpu2.num_cc_register_reads           813541075                       # number of times the CC registers were read
system.cpu2.num_cc_register_writes          401888326                       # number of times the CC registers were written
system.cpu2.num_conditional_control_insts    108360758                       # number of instructions that are conditional controls
system.cpu2.num_fp_alu_accesses              24302622                       # Number of float alu accesses
system.cpu2.num_fp_insts                     24302622                       # number of float instructions
system.cpu2.num_fp_register_reads            38510797                       # number of times the floating registers were read
system.cpu2.num_fp_register_writes           19132247                       # number of times the floating registers were written
system.cpu2.num_func_calls                   45844856                       # number of times a function call or return occured
system.cpu2.num_idle_cycles              184729943714.076019                       # Number of idle cycles
system.cpu2.num_int_alu_accesses           1339571026                       # Number of integer alu accesses
system.cpu2.num_int_insts                  1339571026                       # number of integer instructions
system.cpu2.num_int_register_reads         2710730593                       # number of times the integer registers were read
system.cpu2.num_int_register_writes        1078509746                       # number of times the integer registers were written
system.cpu2.num_load_insts                  181198679                       # Number of load instructions
system.cpu2.num_mem_refs                    302557608                       # number of memory refs
system.cpu2.num_store_insts                 121358929                       # Number of store instructions
system.cpu2.num_vec_alu_accesses                    0                       # Number of vector alu accesses
system.cpu2.num_vec_insts                           0                       # number of vector instructions
system.cpu2.num_vec_register_reads                  0                       # number of times the vector registers were read
system.cpu2.num_vec_register_writes                 0                       # number of times the vector registers were written
system.cpu2.op_class::No_OpClass             27794520      2.00%      2.00% # Class of executed instruction
system.cpu2.op_class::IntAlu               1038232033     74.66%     76.65% # Class of executed instruction
system.cpu2.op_class::IntMult                 2049702      0.15%     76.80% # Class of executed instruction
system.cpu2.op_class::IntDiv                  3910728      0.28%     77.08% # Class of executed instruction
system.cpu2.op_class::FloatAdd                 450502      0.03%     77.12% # Class of executed instruction
system.cpu2.op_class::FloatCmp                      0      0.00%     77.12% # Class of executed instruction
system.cpu2.op_class::FloatCvt                  30512      0.00%     77.12% # Class of executed instruction
system.cpu2.op_class::FloatMult                     0      0.00%     77.12% # Class of executed instruction
system.cpu2.op_class::FloatMultAcc                  0      0.00%     77.12% # Class of executed instruction
system.cpu2.op_class::FloatDiv                      0      0.00%     77.12% # Class of executed instruction
system.cpu2.op_class::FloatMisc                     0      0.00%     77.12% # Class of executed instruction
system.cpu2.op_class::FloatSqrt                     0      0.00%     77.12% # Class of executed instruction
system.cpu2.op_class::SimdAdd                  770876      0.06%     77.17% # Class of executed instruction
system.cpu2.op_class::SimdAddAcc                    0      0.00%     77.17% # Class of executed instruction
system.cpu2.op_class::SimdAlu                 4215661      0.30%     77.48% # Class of executed instruction
system.cpu2.op_class::SimdCmp                  219456      0.02%     77.49% # Class of executed instruction
system.cpu2.op_class::SimdCvt                 4873020      0.35%     77.84% # Class of executed instruction
system.cpu2.op_class::SimdMisc                5127294      0.37%     78.21% # Class of executed instruction
system.cpu2.op_class::SimdMult                      0      0.00%     78.21% # Class of executed instruction
system.cpu2.op_class::SimdMultAcc                   0      0.00%     78.21% # Class of executed instruction
system.cpu2.op_class::SimdShift                451419      0.03%     78.24% # Class of executed instruction
system.cpu2.op_class::SimdShiftAcc                  0      0.00%     78.24% # Class of executed instruction
system.cpu2.op_class::SimdDiv                       0      0.00%     78.24% # Class of executed instruction
system.cpu2.op_class::SimdSqrt                      0      0.00%     78.24% # Class of executed instruction
system.cpu2.op_class::SimdFloatAdd                747      0.00%     78.24% # Class of executed instruction
system.cpu2.op_class::SimdFloatAlu                  0      0.00%     78.24% # Class of executed instruction
system.cpu2.op_class::SimdFloatCmp                  1      0.00%     78.24% # Class of executed instruction
system.cpu2.op_class::SimdFloatCvt               2078      0.00%     78.24% # Class of executed instruction
system.cpu2.op_class::SimdFloatDiv                289      0.00%     78.24% # Class of executed instruction
system.cpu2.op_class::SimdFloatMisc                 0      0.00%     78.24% # Class of executed instruction
system.cpu2.op_class::SimdFloatMult               748      0.00%     78.24% # Class of executed instruction
system.cpu2.op_class::SimdFloatMultAcc              0      0.00%     78.24% # Class of executed instruction
system.cpu2.op_class::SimdFloatSqrt                 0      0.00%     78.24% # Class of executed instruction
system.cpu2.op_class::SimdReduceAdd                 0      0.00%     78.24% # Class of executed instruction
system.cpu2.op_class::SimdReduceAlu                 0      0.00%     78.24% # Class of executed instruction
system.cpu2.op_class::SimdReduceCmp                 0      0.00%     78.24% # Class of executed instruction
system.cpu2.op_class::SimdFloatReduceAdd            0      0.00%     78.24% # Class of executed instruction
system.cpu2.op_class::SimdFloatReduceCmp            0      0.00%     78.24% # Class of executed instruction
system.cpu2.op_class::SimdAes                       0      0.00%     78.24% # Class of executed instruction
system.cpu2.op_class::SimdAesMix                    0      0.00%     78.24% # Class of executed instruction
system.cpu2.op_class::SimdSha1Hash                  0      0.00%     78.24% # Class of executed instruction
system.cpu2.op_class::SimdSha1Hash2                 0      0.00%     78.24% # Class of executed instruction
system.cpu2.op_class::SimdSha256Hash                0      0.00%     78.24% # Class of executed instruction
system.cpu2.op_class::SimdSha256Hash2               0      0.00%     78.24% # Class of executed instruction
system.cpu2.op_class::SimdShaSigma2                 0      0.00%     78.24% # Class of executed instruction
system.cpu2.op_class::SimdShaSigma3                 0      0.00%     78.24% # Class of executed instruction
system.cpu2.op_class::SimdPredAlu                   0      0.00%     78.24% # Class of executed instruction
system.cpu2.op_class::MemRead               176399059     12.68%     90.93% # Class of executed instruction
system.cpu2.op_class::MemWrite              119316327      8.58%     99.51% # Class of executed instruction
system.cpu2.op_class::FloatMemRead            4799620      0.35%     99.85% # Class of executed instruction
system.cpu2.op_class::FloatMemWrite           2042602      0.15%    100.00% # Class of executed instruction
system.cpu2.op_class::IprAccess                     0      0.00%    100.00% # Class of executed instruction
system.cpu2.op_class::InstPrefetch                  0      0.00%    100.00% # Class of executed instruction
system.cpu2.op_class::total                1390687194                       # Class of executed instruction
system.cpu3.Branches                        172810653                       # Number of branches fetched
system.cpu3.committedInsts                  652304286                       # Number of instructions committed
system.cpu3.committedOps                   1405082120                       # Number of ops (including micro ops) committed
system.cpu3.dtb.rdAccesses                  182868645                       # TLB accesses on read requests
system.cpu3.dtb.rdMisses                      1747429                       # TLB misses on read requests
system.cpu3.dtb.wrAccesses                  122913907                       # TLB accesses on write requests
system.cpu3.dtb.wrMisses                       166343                       # TLB misses on write requests
system.cpu3.idle_fraction                    0.970815                       # Percentage of idle cycles
system.cpu3.itb.rdAccesses                          0                       # TLB accesses on read requests
system.cpu3.itb.rdMisses                            0                       # TLB misses on read requests
system.cpu3.itb.wrAccesses                  864282383                       # TLB accesses on write requests
system.cpu3.itb.wrMisses                       570848                       # TLB misses on write requests
system.cpu3.kern.inst.arm                           0                       # number of arm instructions executed
system.cpu3.kern.inst.quiesce                       0                       # number of quiesce instructions executed
system.cpu3.not_idle_fraction                0.029185                       # Percentage of non-idle cycles
system.cpu3.numCycles                    190097043745                       # number of cpu cycles simulated
system.cpu3.numWorkItemsCompleted                   0                       # number of work items this cpu completed
system.cpu3.numWorkItemsStarted                     0                       # number of work items this cpu started
system.cpu3.num_busy_cycles              5547894882.146495                       # Number of busy cycles
system.cpu3.num_cc_register_reads           800529091                       # number of times the CC registers were read
system.cpu3.num_cc_register_writes          410713029                       # number of times the CC registers were written
system.cpu3.num_conditional_control_insts    115949575                       # number of instructions that are conditional controls
system.cpu3.num_fp_alu_accesses              13279010                       # Number of float alu accesses
system.cpu3.num_fp_insts                     13279010                       # number of float instructions
system.cpu3.num_fp_register_reads            18284839                       # number of times the floating registers were read
system.cpu3.num_fp_register_writes            9453933                       # number of times the floating registers were written
system.cpu3.num_func_calls                   41708405                       # number of times a function call or return occured
system.cpu3.num_idle_cycles              184549148862.853485                       # Number of idle cycles
system.cpu3.num_int_alu_accesses           1349236649                       # Number of integer alu accesses
system.cpu3.num_int_insts                  1349236649                       # number of integer instructions
system.cpu3.num_int_register_reads         2707373262                       # number of times the integer registers were read
system.cpu3.num_int_register_writes        1084414418                       # number of times the integer registers were written
system.cpu3.num_load_insts                  181043939                       # Number of load instructions
system.cpu3.num_mem_refs                    303792199                       # number of memory refs
system.cpu3.num_store_insts                 122748260                       # Number of store instructions
system.cpu3.num_vec_alu_accesses                    0                       # Number of vector alu accesses
system.cpu3.num_vec_insts                           0                       # number of vector instructions
system.cpu3.num_vec_register_reads                  0                       # number of times the vector registers were read
system.cpu3.num_vec_register_writes                 0                       # number of times the vector registers were written
system.cpu3.op_class::No_OpClass             28871182      2.05%      2.05% # Class of executed instruction
system.cpu3.op_class::IntAlu               1060763226     75.49%     77.54% # Class of executed instruction
system.cpu3.op_class::IntMult                 1657638      0.12%     77.66% # Class of executed instruction
system.cpu3.op_class::IntDiv                  2753606      0.20%     77.86% # Class of executed instruction
system.cpu3.op_class::FloatAdd                 447490      0.03%     77.89% # Class of executed instruction
system.cpu3.op_class::FloatCmp                      0      0.00%     77.89% # Class of executed instruction
system.cpu3.op_class::FloatCvt                  26912      0.00%     77.89% # Class of executed instruction
system.cpu3.op_class::FloatMult                     0      0.00%     77.89% # Class of executed instruction
system.cpu3.op_class::FloatMultAcc                  0      0.00%     77.89% # Class of executed instruction
system.cpu3.op_class::FloatDiv                      0      0.00%     77.89% # Class of executed instruction
system.cpu3.op_class::FloatMisc                     0      0.00%     77.89% # Class of executed instruction
system.cpu3.op_class::FloatSqrt                     0      0.00%     77.89% # Class of executed instruction
system.cpu3.op_class::SimdAdd                  565154      0.04%     77.93% # Class of executed instruction
system.cpu3.op_class::SimdAddAcc                    0      0.00%     77.93% # Class of executed instruction
system.cpu3.op_class::SimdAlu                 2098894      0.15%     78.08% # Class of executed instruction
system.cpu3.op_class::SimdCmp                   24474      0.00%     78.08% # Class of executed instruction
system.cpu3.op_class::SimdCvt                 1792550      0.13%     78.21% # Class of executed instruction
system.cpu3.op_class::SimdMisc                2074086      0.15%     78.36% # Class of executed instruction
system.cpu3.op_class::SimdMult                      0      0.00%     78.36% # Class of executed instruction
system.cpu3.op_class::SimdMultAcc                   0      0.00%     78.36% # Class of executed instruction
system.cpu3.op_class::SimdShift                336345      0.02%     78.38% # Class of executed instruction
system.cpu3.op_class::SimdShiftAcc                  0      0.00%     78.38% # Class of executed instruction
system.cpu3.op_class::SimdDiv                       0      0.00%     78.38% # Class of executed instruction
system.cpu3.op_class::SimdSqrt                      0      0.00%     78.38% # Class of executed instruction
system.cpu3.op_class::SimdFloatAdd                948      0.00%     78.38% # Class of executed instruction
system.cpu3.op_class::SimdFloatAlu                  0      0.00%     78.38% # Class of executed instruction
system.cpu3.op_class::SimdFloatCmp                  1      0.00%     78.38% # Class of executed instruction
system.cpu3.op_class::SimdFloatCvt               2643      0.00%     78.38% # Class of executed instruction
system.cpu3.op_class::SimdFloatDiv                  3      0.00%     78.38% # Class of executed instruction
system.cpu3.op_class::SimdFloatMisc                 0      0.00%     78.38% # Class of executed instruction
system.cpu3.op_class::SimdFloatMult               988      0.00%     78.38% # Class of executed instruction
system.cpu3.op_class::SimdFloatMultAcc              0      0.00%     78.38% # Class of executed instruction
system.cpu3.op_class::SimdFloatSqrt                 0      0.00%     78.38% # Class of executed instruction
system.cpu3.op_class::SimdReduceAdd                 0      0.00%     78.38% # Class of executed instruction
system.cpu3.op_class::SimdReduceAlu                 0      0.00%     78.38% # Class of executed instruction
system.cpu3.op_class::SimdReduceCmp                 0      0.00%     78.38% # Class of executed instruction
system.cpu3.op_class::SimdFloatReduceAdd            0      0.00%     78.38% # Class of executed instruction
system.cpu3.op_class::SimdFloatReduceCmp            0      0.00%     78.38% # Class of executed instruction
system.cpu3.op_class::SimdAes                       0      0.00%     78.38% # Class of executed instruction
system.cpu3.op_class::SimdAesMix                    0      0.00%     78.38% # Class of executed instruction
system.cpu3.op_class::SimdSha1Hash                  0      0.00%     78.38% # Class of executed instruction
system.cpu3.op_class::SimdSha1Hash2                 0      0.00%     78.38% # Class of executed instruction
system.cpu3.op_class::SimdSha256Hash                0      0.00%     78.38% # Class of executed instruction
system.cpu3.op_class::SimdSha256Hash2               0      0.00%     78.38% # Class of executed instruction
system.cpu3.op_class::SimdShaSigma2                 0      0.00%     78.38% # Class of executed instruction
system.cpu3.op_class::SimdShaSigma3                 0      0.00%     78.38% # Class of executed instruction
system.cpu3.op_class::SimdPredAlu                   0      0.00%     78.38% # Class of executed instruction
system.cpu3.op_class::MemRead               178140576     12.68%     91.06% # Class of executed instruction
system.cpu3.op_class::MemWrite              120092317      8.55%     99.60% # Class of executed instruction
system.cpu3.op_class::FloatMemRead            2903363      0.21%     99.81% # Class of executed instruction
system.cpu3.op_class::FloatMemWrite           2655943      0.19%    100.00% # Class of executed instruction
system.cpu3.op_class::IprAccess                     0      0.00%    100.00% # Class of executed instruction
system.cpu3.op_class::InstPrefetch                  0      0.00%    100.00% # Class of executed instruction
system.cpu3.op_class::total                1405208339                       # Class of executed instruction
system.pc.south_bridge.ide.disks.dma_read_bytes     12664832                       # Number of bytes transfered via DMA reads (not PRD).
system.pc.south_bridge.ide.disks.dma_read_full_pages         3092                       # Number of full page size DMA reads (not PRD).
system.pc.south_bridge.ide.disks.dma_read_txs         3092                       # Number of DMA read transactions (not PRD).
system.pc.south_bridge.ide.disks.dma_write_bytes     46266368                       # Number of bytes transfered via DMA writes.
system.pc.south_bridge.ide.disks.dma_write_full_pages        11295                       # Number of full page size DMA writes.
system.pc.south_bridge.ide.disks.dma_write_txs        11297                       # Number of DMA write transactions.
system.ruby.DMA_Controller.E.EloadEEvent |         250    100.00%    100.00% |           0      0.00%    100.00%
system.ruby.DMA_Controller.E.EloadEEvent::total          250                      
system.ruby.DMA_Controller.E.allocTBE    |      195740    100.00%    100.00% |           0      0.00%    100.00%
system.ruby.DMA_Controller.E.allocTBE::total       195740                      
system.ruby.DMA_Controller.E.externalloadEdatfrom_in |      196206    100.00%    100.00% |           0      0.00%    100.00%
system.ruby.DMA_Controller.E.externalloadEdatfrom_in::total       196206                      
system.ruby.DMA_Controller.E_evict.Stallmandatory_in |      570775    100.00%    100.00% |           0      0.00%    100.00%
system.ruby.DMA_Controller.E_evict.Stallmandatory_in::total       570775                      
system.ruby.DMA_Controller.EloadEEvent   |         250    100.00%    100.00% |           0      0.00%    100.00%
system.ruby.DMA_Controller.EloadEEvent::total          250                      
system.ruby.DMA_Controller.I.allocI_load |      199323    100.00%    100.00% |           0      0.00%    100.00%
system.ruby.DMA_Controller.I.allocI_load::total       199323                      
system.ruby.DMA_Controller.I.allocI_store |      722832    100.00%    100.00% |           0      0.00%    100.00%
system.ruby.DMA_Controller.I.allocI_store::total       722832                      
system.ruby.DMA_Controller.I.deallocrspfrom_in |      919126    100.00%    100.00% |           0      0.00%    100.00%
system.ruby.DMA_Controller.I.deallocrspfrom_in::total       919126                      
system.ruby.DMA_Controller.I.deallocsnpfrom_in |        2005    100.00%    100.00% |           0      0.00%    100.00%
system.ruby.DMA_Controller.I.deallocsnpfrom_in::total         2005                      
system.ruby.DMA_Controller.M.MloadMEvent |          48    100.00%    100.00% |           0      0.00%    100.00%
system.ruby.DMA_Controller.M.MloadMEvent::total           48                      
system.ruby.DMA_Controller.M.MstoreMEvent |          48    100.00%    100.00% |           0      0.00%    100.00%
system.ruby.DMA_Controller.M.MstoreMEvent::total           48                      
system.ruby.DMA_Controller.M.allocTBE    |      639260    100.00%    100.00% |           0      0.00%    100.00%
system.ruby.DMA_Controller.M.allocTBE::total       639260                      
system.ruby.DMA_Controller.M.externalstoreMdatfrom_in |      722832    100.00%    100.00% |           0      0.00%    100.00%
system.ruby.DMA_Controller.M.externalstoreMdatfrom_in::total       722832                      
system.ruby.DMA_Controller.M.externalstoreMrspfrom_in |          32    100.00%    100.00% |           0      0.00%    100.00%
system.ruby.DMA_Controller.M.externalstoreMrspfrom_in::total           32                      
system.ruby.DMA_Controller.M_evict.Stallmandatory_in |     1968782    100.00%    100.00% |           0      0.00%    100.00%
system.ruby.DMA_Controller.M_evict.Stallmandatory_in::total      1968782                      
system.ruby.DMA_Controller.MloadMEvent   |          48    100.00%    100.00% |           0      0.00%    100.00%
system.ruby.DMA_Controller.MloadMEvent::total           48                      
system.ruby.DMA_Controller.MstoreMEvent  |          48    100.00%    100.00% |           0      0.00%    100.00%
system.ruby.DMA_Controller.MstoreMEvent::total           48                      
system.ruby.DMA_Controller.O.OloadOEvent |          72    100.00%    100.00% |           0      0.00%    100.00%
system.ruby.DMA_Controller.O.OloadOEvent::total           72                      
system.ruby.DMA_Controller.O.allocTBE    |       82247    100.00%    100.00% |           0      0.00%    100.00%
system.ruby.DMA_Controller.O.allocTBE::total        82247                      
system.ruby.DMA_Controller.O.deallocTBE  |       91707    100.00%    100.00% |           0      0.00%    100.00%
system.ruby.DMA_Controller.O.deallocTBE::total        91707                      
system.ruby.DMA_Controller.O_evict.Stallmandatory_in |      249087    100.00%    100.00% |           0      0.00%    100.00%
system.ruby.DMA_Controller.O_evict.Stallmandatory_in::total       249087                      
system.ruby.DMA_Controller.O_store.tbePopulate |          32    100.00%    100.00% |           0      0.00%    100.00%
system.ruby.DMA_Controller.O_store.tbePopulate::total           32                      
system.ruby.DMA_Controller.OloadOEvent   |          72    100.00%    100.00% |           0      0.00%    100.00%
system.ruby.DMA_Controller.OloadOEvent::total           72                      
system.ruby.DMA_Controller.S.SloadSEvent |        4070    100.00%    100.00% |           0      0.00%    100.00%
system.ruby.DMA_Controller.S.SloadSEvent::total         4070                      
system.ruby.DMA_Controller.S.allocTBE    |        1911    100.00%    100.00% |           0      0.00%    100.00%
system.ruby.DMA_Controller.S.allocTBE::total         1911                      
system.ruby.DMA_Controller.S.deallocTBE  |         384    100.00%    100.00% |           0      0.00%    100.00%
system.ruby.DMA_Controller.S.deallocTBE::total          384                      
system.ruby.DMA_Controller.S.externalloadSdatfrom_in |        3117    100.00%    100.00% |           0      0.00%    100.00%
system.ruby.DMA_Controller.S.externalloadSdatfrom_in::total         3117                      
system.ruby.DMA_Controller.S_evict.Stallmandatory_in |        5479    100.00%    100.00% |           0      0.00%    100.00%
system.ruby.DMA_Controller.S_evict.Stallmandatory_in::total         5479                      
system.ruby.DMA_Controller.SloadSEvent   |        4070    100.00%    100.00% |           0      0.00%    100.00%
system.ruby.DMA_Controller.SloadSEvent::total         4070                      
system.ruby.DMA_Controller.Stallmandatory_in |     2794123    100.00%    100.00% |           0      0.00%    100.00%
system.ruby.DMA_Controller.Stallmandatory_in::total      2794123                      
system.ruby.DMA_Controller.allocI_load   |      199323    100.00%    100.00% |           0      0.00%    100.00%
system.ruby.DMA_Controller.allocI_load::total       199323                      
system.ruby.DMA_Controller.allocI_store  |      722832    100.00%    100.00% |           0      0.00%    100.00%
system.ruby.DMA_Controller.allocI_store::total       722832                      
system.ruby.DMA_Controller.allocTBE      |      919158    100.00%    100.00% |           0      0.00%    100.00%
system.ruby.DMA_Controller.allocTBE::total       919158                      
system.ruby.DMA_Controller.deallocTBE    |       92091    100.00%    100.00% |           0      0.00%    100.00%
system.ruby.DMA_Controller.deallocTBE::total        92091                      
system.ruby.DMA_Controller.deallocrspfrom_in |      919126    100.00%    100.00% |           0      0.00%    100.00%
system.ruby.DMA_Controller.deallocrspfrom_in::total       919126                      
system.ruby.DMA_Controller.deallocsnpfrom_in |        2005    100.00%    100.00% |           0      0.00%    100.00%
system.ruby.DMA_Controller.deallocsnpfrom_in::total         2005                      
system.ruby.DMA_Controller.externalloadEdatfrom_in |      196206    100.00%    100.00% |           0      0.00%    100.00%
system.ruby.DMA_Controller.externalloadEdatfrom_in::total       196206                      
system.ruby.DMA_Controller.externalloadSdatfrom_in |        3117    100.00%    100.00% |           0      0.00%    100.00%
system.ruby.DMA_Controller.externalloadSdatfrom_in::total         3117                      
system.ruby.DMA_Controller.externalstoreMdatfrom_in |      722832    100.00%    100.00% |           0      0.00%    100.00%
system.ruby.DMA_Controller.externalstoreMdatfrom_in::total       722832                      
system.ruby.DMA_Controller.externalstoreMrspfrom_in |          32    100.00%    100.00% |           0      0.00%    100.00%
system.ruby.DMA_Controller.externalstoreMrspfrom_in::total           32                      
system.ruby.DMA_Controller.tbePopulate   |          32    100.00%    100.00% |           0      0.00%    100.00%
system.ruby.DMA_Controller.tbePopulate::total           32                      
system.ruby.Directory_Controller.E.allocTBE |     1885898     25.14%     25.14% |     1966073     26.20%     51.34% |     1826091     24.34%     75.68% |     1824862     24.32%    100.00%
system.ruby.Directory_Controller.E.allocTBE::total      7502924                      
system.ruby.Directory_Controller.E.deallocTBE |    11870908     26.94%     26.94% |    11635301     26.40%     53.34% |    10250756     23.26%     76.60% |    10310179     23.40%    100.00%
system.ruby.Directory_Controller.E.deallocTBE::total     44067144                      
system.ruby.Directory_Controller.E_ReadShared.Progress |      760252     26.90%     26.90% |      709101     25.09%     51.99% |      678633     24.01%     76.00% |      678263     24.00%    100.00%
system.ruby.Directory_Controller.E_ReadShared.Progress::total      2826249                      
system.ruby.Directory_Controller.E_ReadShared.Stallreqto_in |         350     39.50%     39.50% |         165     18.62%     58.13% |         188     21.22%     79.35% |         183     20.65%    100.00%
system.ruby.Directory_Controller.E_ReadShared.Stallreqto_in::total          886                      
system.ruby.Directory_Controller.E_ReadShared_SnpResp_O_Fwded_S.Progress |       38807     35.53%     35.53% |       29735     27.22%     62.75% |       21505     19.69%     82.43% |       19189     17.57%    100.00%
system.ruby.Directory_Controller.E_ReadShared_SnpResp_O_Fwded_S.Progress::total       109236                      
system.ruby.Directory_Controller.E_ReadShared_SnpResp_O_Fwded_S.Stallreqto_in |          43     23.12%     23.12% |          25     13.44%     36.56% |          24     12.90%     49.46% |          94     50.54%    100.00%
system.ruby.Directory_Controller.E_ReadShared_SnpResp_O_Fwded_S.Stallreqto_in::total          186                      
system.ruby.Directory_Controller.E_ReadShared_SnpResp_S_Fwded_S.Progress |      721445     26.55%     26.55% |      679366     25.00%     51.56% |      657128     24.19%     75.74% |      659074     24.26%    100.00%
system.ruby.Directory_Controller.E_ReadShared_SnpResp_S_Fwded_S.Progress::total      2717013                      
system.ruby.Directory_Controller.E_ReadShared_SnpResp_S_Fwded_S.Stallreqto_in |        1336     39.74%     39.74% |         609     18.11%     57.85% |         761     22.64%     80.49% |         656     19.51%    100.00%
system.ruby.Directory_Controller.E_ReadShared_SnpResp_S_Fwded_S.Stallreqto_in::total         3362                      
system.ruby.Directory_Controller.E_ReadUnique.Progress |        6192     33.20%     33.20% |        5947     31.89%     65.10% |        3521     18.88%     83.98% |        2988     16.02%    100.00%
system.ruby.Directory_Controller.E_ReadUnique.Progress::total        18648                      
system.ruby.Directory_Controller.E_ReadUnique.Stallreqto_in |           0      0.00%      0.00% |           0      0.00%      0.00% |           1    100.00%    100.00% |           0      0.00%    100.00%
system.ruby.Directory_Controller.E_ReadUnique.Stallreqto_in::total            1                      
system.ruby.Directory_Controller.E_ReadUnique_SnpResp_I_Fwded_M_PD.Progress |        6192     33.20%     33.20% |        5947     31.89%     65.10% |        3521     18.88%     83.98% |        2988     16.02%    100.00%
system.ruby.Directory_Controller.E_ReadUnique_SnpResp_I_Fwded_M_PD.Progress::total        18648                      
system.ruby.Directory_Controller.E_ReadUnique_SnpResp_I_Fwded_M_PD.Stallreqto_in |          14     38.89%     38.89% |           5     13.89%     52.78% |           9     25.00%     77.78% |           8     22.22%    100.00%
system.ruby.Directory_Controller.E_ReadUnique_SnpResp_I_Fwded_M_PD.Stallreqto_in::total           36                      
system.ruby.Directory_Controller.E_WriteBackFull.Progress |     1119454     24.03%     24.03% |     1251025     26.86%     50.89% |     1143937     24.56%     75.45% |     1143611     24.55%    100.00%
system.ruby.Directory_Controller.E_WriteBackFull.Progress::total      4658027                      
system.ruby.Directory_Controller.E_WriteBackFull.Stallreqto_in |           5     18.52%     18.52% |           5     18.52%     37.04% |          11     40.74%     77.78% |           6     22.22%    100.00%
system.ruby.Directory_Controller.E_WriteBackFull.Stallreqto_in::total           27                      
system.ruby.Directory_Controller.E_WriteBackFull_CBWR_Data_M_PDL1C1_0.Progress |     1119454     24.03%     24.03% |     1251025     26.86%     50.89% |     1143937     24.56%     75.45% |     1143611     24.55%    100.00%
system.ruby.Directory_Controller.E_WriteBackFull_CBWR_Data_M_PDL1C1_0.Progress::total      4658027                      
system.ruby.Directory_Controller.E_WriteBackFull_CBWR_Data_M_PDL1C1_0.Stallreqto_in |          10     29.41%     29.41% |           9     26.47%     55.88% |          10     29.41%     85.29% |           5     14.71%    100.00%
system.ruby.Directory_Controller.E_WriteBackFull_CBWR_Data_M_PDL1C1_0.Stallreqto_in::total           34                      
system.ruby.Directory_Controller.I.Stallreqto_in |          19     36.54%     36.54% |          11     21.15%     57.69% |           6     11.54%     69.23% |          16     30.77%    100.00%
system.ruby.Directory_Controller.I.Stallreqto_in::total           52                      
system.ruby.Directory_Controller.I.allocTBE |    14130817     26.75%     26.75% |    13769287     26.06%     52.81% |    12428600     23.53%     76.34% |    12498048     23.66%    100.00%
system.ruby.Directory_Controller.I.allocTBE::total     52826752                      
system.ruby.Directory_Controller.I.deallocTBE |    14129832     26.75%     26.75% |    13768261     26.07%     52.81% |    12427599     23.53%     76.34% |    12497032     23.66%    100.00%
system.ruby.Directory_Controller.I.deallocTBE::total     52822724                      
system.ruby.Directory_Controller.I_ReadShared.Stallreqto_in |       33431     27.94%     27.94% |       28605     23.90%     51.84% |       29998     25.07%     76.91% |       27636     23.09%    100.00%
system.ruby.Directory_Controller.I_ReadShared.Stallreqto_in::total       119670                      
system.ruby.Directory_Controller.I_ReadShared.deallocTBE |    11870909     26.94%     26.94% |    11635301     26.40%     53.34% |    10250756     23.26%     76.60% |    10310179     23.40%    100.00%
system.ruby.Directory_Controller.I_ReadShared.deallocTBE::total     44067145                      
system.ruby.Directory_Controller.I_ReadSharedL1C1_0.Progress |    11870909     26.94%     26.94% |    11635301     26.40%     53.34% |    10250756     23.26%     76.60% |    10310179     23.40%    100.00%
system.ruby.Directory_Controller.I_ReadSharedL1C1_0.Progress::total     44067145                      
system.ruby.Directory_Controller.I_ReadSharedL1C1_0.Stallreqto_in |       46062     27.88%     27.88% |       39138     23.69%     51.57% |       41067     24.86%     76.43% |       38937     23.57%    100.00%
system.ruby.Directory_Controller.I_ReadSharedL1C1_0.Stallreqto_in::total       165204                      
system.ruby.Directory_Controller.I_ReadUnique.Stallreqto_in |         199     19.63%     19.63% |         258     25.44%     45.07% |         238     23.47%     68.54% |         319     31.46%    100.00%
system.ruby.Directory_Controller.I_ReadUnique.Stallreqto_in::total         1014                      
system.ruby.Directory_Controller.I_ReadUnique.deallocTBE |     2259908     25.80%     25.80% |     2133986     24.36%     50.16% |     2177844     24.86%     75.02% |     2187869     24.98%    100.00%
system.ruby.Directory_Controller.I_ReadUnique.deallocTBE::total      8759607                      
system.ruby.Directory_Controller.I_ReadUniqueL1C1_0.Progress |     2259908     25.80%     25.80% |     2133986     24.36%     50.16% |     2177844     24.86%     75.02% |     2187869     24.98%    100.00%
system.ruby.Directory_Controller.I_ReadUniqueL1C1_0.Progress::total      8759607                      
system.ruby.Directory_Controller.I_ReadUniqueL1C1_0.Stallreqto_in |         369     20.44%     20.44% |         425     23.55%     43.99% |         370     20.50%     64.49% |         641     35.51%    100.00%
system.ruby.Directory_Controller.I_ReadUniqueL1C1_0.Stallreqto_in::total         1805                      
system.ruby.Directory_Controller.M.Stallreqto_in |           0      0.00%      0.00% |           0      0.00%      0.00% |           1     33.33%     33.33% |           2     66.67%    100.00%
system.ruby.Directory_Controller.M.Stallreqto_in::total            3                      
system.ruby.Directory_Controller.M.allocTBE |     2773198     27.52%     27.52% |     2475806     24.57%     52.10% |     2411110     23.93%     76.03% |     2415160     23.97%    100.00%
system.ruby.Directory_Controller.M.allocTBE::total     10075274                      
system.ruby.Directory_Controller.M.deallocTBE |     2773359     27.52%     27.52% |     2475976     24.57%     52.10% |     2411299     23.93%     76.03% |     2415339     23.97%    100.00%
system.ruby.Directory_Controller.M.deallocTBE::total     10075973                      
system.ruby.Directory_Controller.M_ReadShared.Progress |      372445     34.21%     34.21% |      285823     26.26%     60.47% |      211825     19.46%     79.93% |      218467     20.07%    100.00%
system.ruby.Directory_Controller.M_ReadShared.Progress::total      1088560                      
system.ruby.Directory_Controller.M_ReadShared.Stallreqto_in |         109     48.66%     48.66% |           6      2.68%     51.34% |          35     15.62%     66.96% |          74     33.04%    100.00%
system.ruby.Directory_Controller.M_ReadShared.Stallreqto_in::total          224                      
system.ruby.Directory_Controller.M_ReadShared_SnpResp_O_Fwded_S.Progress |      372445     34.21%     34.21% |      285823     26.26%     60.47% |      211825     19.46%     79.93% |      218467     20.07%    100.00%
system.ruby.Directory_Controller.M_ReadShared_SnpResp_O_Fwded_S.Progress::total      1088560                      
system.ruby.Directory_Controller.M_ReadShared_SnpResp_O_Fwded_S.Stallreqto_in |         474     16.24%     16.24% |         283      9.70%     25.94% |         224      7.68%     33.62% |        1937     66.38%    100.00%
system.ruby.Directory_Controller.M_ReadShared_SnpResp_O_Fwded_S.Stallreqto_in::total         2918                      
system.ruby.Directory_Controller.M_ReadUnique.Progress |       92997     53.16%     53.16% |       20673     11.82%     64.98% |       31501     18.01%     82.98% |       29767     17.02%    100.00%
system.ruby.Directory_Controller.M_ReadUnique.Progress::total       174938                      
system.ruby.Directory_Controller.M_ReadUnique.Stallreqto_in |          31     32.29%     32.29% |          11     11.46%     43.75% |          29     30.21%     73.96% |          25     26.04%    100.00%
system.ruby.Directory_Controller.M_ReadUnique.Stallreqto_in::total           96                      
system.ruby.Directory_Controller.M_ReadUnique_SnpResp_I_Fwded_M_PD.Progress |       92997     53.16%     53.16% |       20673     11.82%     64.98% |       31501     18.01%     82.98% |       29767     17.02%    100.00%
system.ruby.Directory_Controller.M_ReadUnique_SnpResp_I_Fwded_M_PD.Progress::total       174938                      
system.ruby.Directory_Controller.M_ReadUnique_SnpResp_I_Fwded_M_PD.Stallreqto_in |        1667     11.15%     11.15% |         570      3.81%     14.97% |        1391      9.31%     24.28% |       11317     75.72%    100.00%
system.ruby.Directory_Controller.M_ReadUnique_SnpResp_I_Fwded_M_PD.Stallreqto_in::total        14945                      
system.ruby.Directory_Controller.M_WriteBackFull.Progress |     2307756     26.19%     26.19% |     2169310     24.62%     50.81% |     2167784     24.60%     75.41% |     2166926     24.59%    100.00%
system.ruby.Directory_Controller.M_WriteBackFull.Progress::total      8811776                      
system.ruby.Directory_Controller.M_WriteBackFull.Stallreqto_in |         442     93.45%     93.45% |          12      2.54%     95.98% |          11      2.33%     98.31% |           8      1.69%    100.00%
system.ruby.Directory_Controller.M_WriteBackFull.Stallreqto_in::total          473                      
system.ruby.Directory_Controller.M_WriteBackFull_CBWR_Data_M_PDL1C1_0.Progress |     2307756     26.19%     26.19% |     2169306     24.62%     50.81% |     2167781     24.60%     75.41% |     2166923     24.59%    100.00%
system.ruby.Directory_Controller.M_WriteBackFull_CBWR_Data_M_PDL1C1_0.Progress::total      8811766                      
system.ruby.Directory_Controller.M_WriteBackFull_CBWR_Data_M_PDL1C1_0.Stallreqto_in |          32     42.11%     42.11% |          16     21.05%     63.16% |          18     23.68%     86.84% |          10     13.16%    100.00%
system.ruby.Directory_Controller.M_WriteBackFull_CBWR_Data_M_PDL1C1_0.Stallreqto_in::total           76                      
system.ruby.Directory_Controller.O.allocTBE |      874423     36.29%     36.29% |      533448     22.14%     58.42% |      520744     21.61%     80.03% |      481216     19.97%    100.00%
system.ruby.Directory_Controller.O.allocTBE::total      2409831                      
system.ruby.Directory_Controller.O.deallocTBE |      992706     35.01%     35.01% |      634852     22.39%     57.39% |      620627     21.88%     79.28% |      587689     20.72%    100.00%
system.ruby.Directory_Controller.O.deallocTBE::total      2835874                      
system.ruby.Directory_Controller.O_ReadShared.Progress |      463365     38.21%     38.21% |      218075     17.98%     56.19% |      287599     23.71%     79.90% |      243741     20.10%    100.00%
system.ruby.Directory_Controller.O_ReadShared.Progress::total      1212780                      
system.ruby.Directory_Controller.O_ReadShared.Stallreqto_in |          77     75.49%     75.49% |           3      2.94%     78.43% |           7      6.86%     85.29% |          15     14.71%    100.00%
system.ruby.Directory_Controller.O_ReadShared.Stallreqto_in::total          102                      
system.ruby.Directory_Controller.O_ReadShared_SnpResp_O_Fwded_S.Progress |      463365     38.21%     38.21% |      218075     17.98%     56.19% |      287599     23.71%     79.90% |      243741     20.10%    100.00%
system.ruby.Directory_Controller.O_ReadShared_SnpResp_O_Fwded_S.Progress::total      1212780                      
system.ruby.Directory_Controller.O_ReadShared_SnpResp_O_Fwded_S.Stallreqto_in |         137     60.89%     60.89% |          12      5.33%     66.22% |          41     18.22%     84.44% |          35     15.56%    100.00%
system.ruby.Directory_Controller.O_ReadShared_SnpResp_O_Fwded_S.Stallreqto_in::total          225                      
system.ruby.Directory_Controller.O_ReadUnique.Progress |      790030     38.77%     38.77% |      477745     23.45%     62.22% |      406086     19.93%     82.15% |      363813     17.85%    100.00%
system.ruby.Directory_Controller.O_ReadUnique.Progress::total      2037674                      
system.ruby.Directory_Controller.O_ReadUnique.Stallreqto_in |         788      6.31%      6.31% |         861      6.89%     13.20% |        1670     13.37%     26.58% |        9170     73.42%    100.00%
system.ruby.Directory_Controller.O_ReadUnique.Stallreqto_in::total        12489                      
system.ruby.Directory_Controller.O_ReadUnique_SnpRespData_I_PD.Progress |       38433     17.47%     17.47% |       71015     32.29%     49.76% |       49777     22.63%     72.39% |       60731     27.61%    100.00%
system.ruby.Directory_Controller.O_ReadUnique_SnpRespData_I_PD.Progress::total       219956                      
system.ruby.Directory_Controller.O_ReadUnique_SnpRespData_I_PD.Stallreqto_in |        1774      6.22%      6.22% |        2077      7.28%     13.49% |        4045     14.17%     27.66% |       20647     72.34%    100.00%
system.ruby.Directory_Controller.O_ReadUnique_SnpRespData_I_PD.Stallreqto_in::total        28543                      
system.ruby.Directory_Controller.O_ReadUnique_SnpResp_I.Stallreqto_in |        2077     11.80%     11.80% |        1775     10.09%     21.89% |        5991     34.05%     55.94% |        7753     44.06%    100.00%
system.ruby.Directory_Controller.O_ReadUnique_SnpResp_I.Stallreqto_in::total        17596                      
system.ruby.Directory_Controller.O_ReadUnique_SnpResp_I.deallocTBE |      288880     41.87%     41.87% |      156879     22.74%     64.61% |      126158     18.29%     82.89% |      118036     17.11%    100.00%
system.ruby.Directory_Controller.O_ReadUnique_SnpResp_I.deallocTBE::total       689953                      
system.ruby.Directory_Controller.O_ReadUnique_SnpResp_IL1C1_0.Progress |      288880     41.87%     41.87% |      156879     22.74%     64.61% |      126158     18.29%     82.89% |      118036     17.11%    100.00%
system.ruby.Directory_Controller.O_ReadUnique_SnpResp_IL1C1_0.Progress::total       689953                      
system.ruby.Directory_Controller.O_ReadUnique_SnpResp_IL1C1_0.Stallreqto_in |        4475     11.50%     11.50% |        4423     11.37%     22.87% |       15022     38.61%     61.49% |       14982     38.51%    100.00%
system.ruby.Directory_Controller.O_ReadUnique_SnpResp_IL1C1_0.Stallreqto_in::total        38902                      
system.ruby.Directory_Controller.O_WriteBackFull.Progress |       36914     20.19%     20.19% |       32902     17.99%     38.18% |       55609     30.41%     68.59% |       57436     31.41%    100.00%
system.ruby.Directory_Controller.O_WriteBackFull.Progress::total       182861                      
system.ruby.Directory_Controller.O_WriteBackFull.Stallreqto_in |        1268     64.20%     64.20% |         457     23.14%     87.34% |         213     10.78%     98.13% |          37      1.87%    100.00%
system.ruby.Directory_Controller.O_WriteBackFull.Stallreqto_in::total         1975                      
system.ruby.Directory_Controller.O_WriteBackFull_CBWR_Data_O_PDL1C1_0.Progress |       24299     18.26%     18.26% |       23766     17.86%     36.13% |       39053     29.35%     65.48% |       45919     34.52%    100.00%
system.ruby.Directory_Controller.O_WriteBackFull_CBWR_Data_O_PDL1C1_0.Progress::total       133037                      
system.ruby.Directory_Controller.O_WriteBackFull_CBWR_Data_O_PDL1C1_0.Stallreqto_in |           2     50.00%     50.00% |           0      0.00%     50.00% |           0      0.00%     50.00% |           2     50.00%    100.00%
system.ruby.Directory_Controller.O_WriteBackFull_CBWR_Data_O_PDL1C1_0.Stallreqto_in::total            4                      
system.ruby.Directory_Controller.O_WriteBackFull_CBWR_Data_O_PDL1C1_1.Progress |       12615     25.32%     25.32% |        9136     18.34%     43.66% |       16556     33.23%     76.88% |       11517     23.12%    100.00%
system.ruby.Directory_Controller.O_WriteBackFull_CBWR_Data_O_PDL1C1_1.Progress::total        49824                      
system.ruby.Directory_Controller.O_WriteBackFull_CBWR_Data_O_PDL1C1_1.Stallreqto_in |          37     25.34%     25.34% |          34     23.29%     48.63% |          36     24.66%     73.29% |          39     26.71%    100.00%
system.ruby.Directory_Controller.O_WriteBackFull_CBWR_Data_O_PDL1C1_1.Stallreqto_in::total          146                      
system.ruby.Directory_Controller.Progress |    29213852     27.50%     27.50% |    26388174     24.84%     52.33% |    25042660     23.57%     75.90% |    25601752     24.10%    100.00%
system.ruby.Directory_Controller.Progress::total    106246438                      
system.ruby.Directory_Controller.S.allocTBE |     3593714     28.97%     28.97% |     2501197     20.16%     49.13% |     2848387     22.96%     72.09% |     3461971     27.91%    100.00%
system.ruby.Directory_Controller.S.allocTBE::total     12405269                      
system.ruby.Directory_Controller.S.deallocTBE |     8515189     28.40%     28.40% |     6281973     20.95%     49.35% |     6972140     23.25%     72.61% |     8212748     27.39%    100.00%
system.ruby.Directory_Controller.S.deallocTBE::total     29982050                      
system.ruby.Directory_Controller.S_ReadShared.Stallreqto_in |       26551     39.22%     39.22% |       12838     18.96%     58.18% |       13347     19.71%     77.90% |       14965     22.10%    100.00%
system.ruby.Directory_Controller.S_ReadShared.Stallreqto_in::total        67701                      
system.ruby.Directory_Controller.S_ReadShared.deallocTBE |     3553601     28.90%     28.90% |     2468302     20.07%     48.97% |     2827495     22.99%     71.97% |     3447300     28.03%    100.00%
system.ruby.Directory_Controller.S_ReadShared.deallocTBE::total     12296698                      
system.ruby.Directory_Controller.S_ReadSharedL1C1_0.Progress |     3553601     28.90%     28.90% |     2468302     20.07%     48.97% |     2827495     22.99%     71.97% |     3447300     28.03%    100.00%
system.ruby.Directory_Controller.S_ReadSharedL1C1_0.Progress::total     12296698                      
system.ruby.Directory_Controller.S_ReadSharedL1C1_0.Stallreqto_in |       36993     40.75%     40.75% |       17015     18.74%     59.49% |       17284     19.04%     78.53% |       19492     21.47%    100.00%
system.ruby.Directory_Controller.S_ReadSharedL1C1_0.Stallreqto_in::total        90784                      
system.ruby.Directory_Controller.S_ReadUnique.Progress |       53228     44.67%     44.67% |       26343     22.11%     66.77% |       22837     19.16%     85.94% |       16758     14.06%    100.00%
system.ruby.Directory_Controller.S_ReadUnique.Progress::total       119166                      
system.ruby.Directory_Controller.S_ReadUnique.Stallreqto_in |          83     27.57%     27.57% |          58     19.27%     46.84% |          78     25.91%     72.76% |          82     27.24%    100.00%
system.ruby.Directory_Controller.S_ReadUnique.Stallreqto_in::total          301                      
system.ruby.Directory_Controller.S_ReadUnique.deallocTBE |        2066     13.49%     13.49% |       10127     66.13%     79.62% |        1668     10.89%     90.51% |        1453      9.49%    100.00%
system.ruby.Directory_Controller.S_ReadUnique.deallocTBE::total        15314                      
system.ruby.Directory_Controller.S_ReadUniqueL1C1_0.Progress |        2066     13.49%     13.49% |       10127     66.13%     79.62% |        1668     10.89%     90.51% |        1453      9.49%    100.00%
system.ruby.Directory_Controller.S_ReadUniqueL1C1_0.Progress::total        15314                      
system.ruby.Directory_Controller.S_ReadUniqueL1C1_0.Stallreqto_in |          17     21.79%     21.79% |          34     43.59%     65.38% |          15     19.23%     84.62% |          12     15.38%    100.00%
system.ruby.Directory_Controller.S_ReadUniqueL1C1_0.Stallreqto_in::total           78                      
system.ruby.Directory_Controller.S_ReadUnique_SnpResp_I.Stallreqto_in |         600     26.30%     26.30% |         594     26.04%     52.35% |         594     26.04%     78.39% |         493     21.61%    100.00%
system.ruby.Directory_Controller.S_ReadUnique_SnpResp_I.Stallreqto_in::total         2281                      
system.ruby.Directory_Controller.S_ReadUnique_SnpResp_I.deallocTBE |       38047     40.80%     40.80% |       22768     24.41%     65.21% |       19224     20.61%     85.83% |       13218     14.17%    100.00%
system.ruby.Directory_Controller.S_ReadUnique_SnpResp_I.deallocTBE::total        93257                      
system.ruby.Directory_Controller.S_ReadUnique_SnpResp_IL1C1_0.Progress |       38047     40.80%     40.80% |       22768     24.41%     65.21% |       19224     20.61%     85.83% |       13218     14.17%    100.00%
system.ruby.Directory_Controller.S_ReadUnique_SnpResp_IL1C1_0.Progress::total        93257                      
system.ruby.Directory_Controller.S_ReadUnique_SnpResp_IL1C1_0.Stallreqto_in |        1008     25.09%     25.09% |        1095     27.26%     52.35% |        1073     26.71%     79.06% |         841     20.94%    100.00%
system.ruby.Directory_Controller.S_ReadUnique_SnpResp_IL1C1_0.Stallreqto_in::total         4017                      
system.ruby.Directory_Controller.Stallreqto_in |      160480     27.85%     27.85% |      111429     19.34%     47.19% |      133808     23.22%     70.42% |      170439     29.58%    100.00%
system.ruby.Directory_Controller.Stallreqto_in::total       576156                      
system.ruby.Directory_Controller.allocTBE |    23258050     27.29%     27.29% |    21245811     24.93%     52.22% |    20034932     23.51%     75.73% |    20681257     24.27%    100.00%
system.ruby.Directory_Controller.allocTBE::total     85220050                      
system.ruby.Directory_Controller.deallocTBE |    56295405     27.37%     27.37% |    51223726     24.90%     52.27% |    48085566     23.38%     75.64% |    50101042     24.36%    100.00%
system.ruby.Directory_Controller.deallocTBE::total    205705739                      
system.ruby.IFETCH.hit_latency_hist_seqr::bucket_size            1                      
system.ruby.IFETCH.hit_latency_hist_seqr::max_bucket            9                      
system.ruby.IFETCH.hit_latency_hist_seqr::samples   3746060453                      
system.ruby.IFETCH.hit_latency_hist_seqr |  3746060453    100.00%    100.00% |           0      0.00%    100.00% |           0      0.00%    100.00% |           0      0.00%    100.00% |           0      0.00%    100.00% |           0      0.00%    100.00% |           0      0.00%    100.00% |           0      0.00%    100.00% |           0      0.00%    100.00% |           0      0.00%    100.00%
system.ruby.IFETCH.hit_latency_hist_seqr::total   3746060453                      
system.ruby.IFETCH.latency_hist_seqr::bucket_size            1                      
system.ruby.IFETCH.latency_hist_seqr::max_bucket            9                      
system.ruby.IFETCH.latency_hist_seqr::samples   3780873507                      
system.ruby.IFETCH.latency_hist_seqr     |  3780873507    100.00%    100.00% |           0      0.00%    100.00% |           0      0.00%    100.00% |           0      0.00%    100.00% |           0      0.00%    100.00% |           0      0.00%    100.00% |           0      0.00%    100.00% |           0      0.00%    100.00% |           0      0.00%    100.00% |           0      0.00%    100.00%
system.ruby.IFETCH.latency_hist_seqr::total   3780873507                      
system.ruby.IFETCH.miss_latency_hist_seqr::bucket_size            1                      
system.ruby.IFETCH.miss_latency_hist_seqr::max_bucket            9                      
system.ruby.IFETCH.miss_latency_hist_seqr::samples     34813054                      
system.ruby.IFETCH.miss_latency_hist_seqr |    34813054    100.00%    100.00% |           0      0.00%    100.00% |           0      0.00%    100.00% |           0      0.00%    100.00% |           0      0.00%    100.00% |           0      0.00%    100.00% |           0      0.00%    100.00% |           0      0.00%    100.00% |           0      0.00%    100.00% |           0      0.00%    100.00%
system.ruby.IFETCH.miss_latency_hist_seqr::total     34813054                      
system.ruby.L1Cache_Controller.E.EloadEEvent |  1121393231     47.06%     47.06% |   255008488     10.70%     57.76% |   466108286     19.56%     77.32% |   540374749     22.68%    100.00%
system.ruby.L1Cache_Controller.E.EloadEEvent::total   2382884754                      
system.ruby.L1Cache_Controller.E.EstoreMEvent |     1827991     38.26%     38.26% |      711909     14.90%     53.15% |     1014529     21.23%     74.39% |     1223959     25.61%    100.00%
system.ruby.L1Cache_Controller.E.EstoreMEvent::total      4778388                      
system.ruby.L1Cache_Controller.E.allocTBE |    10743192     29.54%     29.54% |     6148785     16.91%     46.45% |     9393260     25.83%     72.28% |    10082086     27.72%    100.00%
system.ruby.L1Cache_Controller.E.allocTBE::total     36367323                      
[...]
system.iobus.pkt_count_system.ruby.l1_cntrl2.sequencer.mem-master-port::system.pc.south_bridge.keyboard.pio           12                       # Packet count per connected master and slave (bytes)
system.iobus.pkt_count_system.ruby.l1_cntrl2.sequencer.mem-master-port::system.pc.com_1.pio         6720                       # Packet count per connected master and slave (bytes)
system.iobus.pkt_count_system.ruby.l1_cntrl2.sequencer.mem-master-port::system.ruby.l1_cntrl0.sequencer.pio-slave-port         1272                       # Packet count per connected master and slave (bytes)
system.iobus.pkt_count_system.ruby.l1_cntrl2.sequencer.mem-master-port::system.ruby.l1_cntrl1.sequencer.pio-slave-port         1640                       # Packet count per connected master and slave (bytes)
system.iobus.pkt_count_system.ruby.l1_cntrl2.sequencer.mem-master-port::system.ruby.l1_cntrl2.sequencer.pio-slave-port       200484                       # Packet count per connected master and slave (bytes)
system.iobus.pkt_count_system.ruby.l1_cntrl2.sequencer.mem-master-port::system.ruby.l1_cntrl3.sequencer.pio-slave-port          614                       # Packet count per connected master and slave (bytes)
system.iobus.pkt_count_system.ruby.l1_cntrl2.sequencer.mem-master-port::total       225804                       # Packet count per connected master and slave (bytes)
system.iobus.pkt_count_system.ruby.l1_cntrl3.sequencer.mem-master-port::system.pc.south_bridge.ide.pio        19066                       # Packet count per connected master and slave (bytes)
system.iobus.pkt_count_system.ruby.l1_cntrl3.sequencer.mem-master-port::system.pc.south_bridge.keyboard.pio          256                       # Packet count per connected master and slave (bytes)
system.iobus.pkt_count_system.ruby.l1_cntrl3.sequencer.mem-master-port::system.pc.south_bridge.pic1.pio            8                       # Packet count per connected master and slave (bytes)
system.iobus.pkt_count_system.ruby.l1_cntrl3.sequencer.mem-master-port::system.pc.south_bridge.pic2.pio           14                       # Packet count per connected master and slave (bytes)
system.iobus.pkt_count_system.ruby.l1_cntrl3.sequencer.mem-master-port::system.pc.south_bridge.io_apic.pio          130                       # Packet count per connected master and slave (bytes)
system.iobus.pkt_count_system.ruby.l1_cntrl3.sequencer.mem-master-port::system.pc.com_1.pio        23974                       # Packet count per connected master and slave (bytes)
system.iobus.pkt_count_system.ruby.l1_cntrl3.sequencer.mem-master-port::system.pc.fake_com_2.pio           12                       # Packet count per connected master and slave (bytes)
system.iobus.pkt_count_system.ruby.l1_cntrl3.sequencer.mem-master-port::system.pc.fake_com_3.pio           12                       # Packet count per connected master and slave (bytes)
system.iobus.pkt_count_system.ruby.l1_cntrl3.sequencer.mem-master-port::system.pc.fake_com_4.pio           12                       # Packet count per connected master and slave (bytes)
system.iobus.pkt_count_system.ruby.l1_cntrl3.sequencer.mem-master-port::system.ruby.l1_cntrl0.sequencer.pio-slave-port          838                       # Packet count per connected master and slave (bytes)
system.iobus.pkt_count_system.ruby.l1_cntrl3.sequencer.mem-master-port::system.ruby.l1_cntrl1.sequencer.pio-slave-port          586                       # Packet count per connected master and slave (bytes)
system.iobus.pkt_count_system.ruby.l1_cntrl3.sequencer.mem-master-port::system.ruby.l1_cntrl2.sequencer.pio-slave-port          420                       # Packet count per connected master and slave (bytes)
system.iobus.pkt_count_system.ruby.l1_cntrl3.sequencer.mem-master-port::system.ruby.l1_cntrl3.sequencer.pio-slave-port       196326                       # Packet count per connected master and slave (bytes)
system.iobus.pkt_count_system.ruby.l1_cntrl3.sequencer.mem-master-port::system.pc.pci_host.pio          242                       # Packet count per connected master and slave (bytes)
system.iobus.pkt_count_system.ruby.l1_cntrl3.sequencer.mem-master-port::total       241896                       # Packet count per connected master and slave (bytes)
system.iobus.pkt_count::total                 1225836                       # Packet count per connected master and slave (bytes)
system.iobus.pkt_size_system.pc.south_bridge.io_apic.int_master::system.ruby.l1_cntrl0.sequencer.pio-slave-port          848                       # Cumulative packet size per connected master and slave (bytes)
system.iobus.pkt_size_system.pc.south_bridge.io_apic.int_master::system.ruby.l1_cntrl1.sequencer.pio-slave-port       105968                       # Cumulative packet size per connected master and slave (bytes)
system.iobus.pkt_size_system.pc.south_bridge.io_apic.int_master::system.ruby.l1_cntrl2.sequencer.pio-slave-port           12                       # Cumulative packet size per connected master and slave (bytes)
system.iobus.pkt_size_system.pc.south_bridge.io_apic.int_master::system.ruby.l1_cntrl3.sequencer.pio-slave-port           36                       # Cumulative packet size per connected master and slave (bytes)
system.iobus.pkt_size_system.pc.south_bridge.io_apic.int_master::total       106864                       # Cumulative packet size per connected master and slave (bytes)
system.iobus.pkt_size_system.ruby.l1_cntrl0.sequencer.mem-master-port::system.pc.south_bridge.cmos.pio           30                       # Cumulative packet size per connected master and slave (bytes)
system.iobus.pkt_size_system.ruby.l1_cntrl0.sequencer.mem-master-port::system.pc.south_bridge.ide.pio         6600                       # Cumulative packet size per connected master and slave (bytes)
system.iobus.pkt_size_system.ruby.l1_cntrl0.sequencer.mem-master-port::system.pc.south_bridge.pic1.pio           26                       # Cumulative packet size per connected master and slave (bytes)
system.iobus.pkt_size_system.ruby.l1_cntrl0.sequencer.mem-master-port::system.pc.south_bridge.pic2.pio           18                       # Cumulative packet size per connected master and slave (bytes)
system.iobus.pkt_size_system.ruby.l1_cntrl0.sequencer.mem-master-port::system.pc.south_bridge.pit.pio        18827                       # Cumulative packet size per connected master and slave (bytes)
system.iobus.pkt_size_system.ruby.l1_cntrl0.sequencer.mem-master-port::system.pc.south_bridge.speaker.pio            2                       # Cumulative packet size per connected master and slave (bytes)
system.iobus.pkt_size_system.ruby.l1_cntrl0.sequencer.mem-master-port::system.pc.south_bridge.io_apic.pio         1420                       # Cumulative packet size per connected master and slave (bytes)
system.iobus.pkt_size_system.ruby.l1_cntrl0.sequencer.mem-master-port::system.pc.i_dont_exist1.pio            6                       # Cumulative packet size per connected master and slave (bytes)
system.iobus.pkt_size_system.ruby.l1_cntrl0.sequencer.mem-master-port::system.pc.behind_pci.pio            1                       # Cumulative packet size per connected master and slave (bytes)
system.iobus.pkt_size_system.ruby.l1_cntrl0.sequencer.mem-master-port::system.pc.com_1.pio        10409                       # Cumulative packet size per connected master and slave (bytes)
system.iobus.pkt_size_system.ruby.l1_cntrl0.sequencer.mem-master-port::system.ruby.l1_cntrl0.sequencer.pio-slave-port       395196                       # Cumulative packet size per connected master and slave (bytes)
system.iobus.pkt_size_system.ruby.l1_cntrl0.sequencer.mem-master-port::system.ruby.l1_cntrl1.sequencer.pio-slave-port         1440                       # Cumulative packet size per connected master and slave (bytes)
system.iobus.pkt_size_system.ruby.l1_cntrl0.sequencer.mem-master-port::system.ruby.l1_cntrl2.sequencer.pio-slave-port          364                       # Cumulative packet size per connected master and slave (bytes)
system.iobus.pkt_size_system.ruby.l1_cntrl0.sequencer.mem-master-port::system.ruby.l1_cntrl3.sequencer.pio-slave-port         1452                       # Cumulative packet size per connected master and slave (bytes)
system.iobus.pkt_size_system.ruby.l1_cntrl0.sequencer.mem-master-port::system.pc.pci_host.pio           95                       # Cumulative packet size per connected master and slave (bytes)
system.iobus.pkt_size_system.ruby.l1_cntrl0.sequencer.mem-master-port::total       435886                       # Cumulative packet size per connected master and slave (bytes)
system.iobus.pkt_size_system.ruby.l1_cntrl1.sequencer.mem-master-port::system.pc.south_bridge.ide.pio        14048                       # Cumulative packet size per connected master and slave (bytes)
system.iobus.pkt_size_system.ruby.l1_cntrl1.sequencer.mem-master-port::system.pc.com_1.pio        99879                       # Cumulative packet size per connected master and slave (bytes)
system.iobus.pkt_size_system.ruby.l1_cntrl1.sequencer.mem-master-port::system.ruby.l1_cntrl0.sequencer.pio-slave-port         1460                       # Cumulative packet size per connected master and slave (bytes)
system.iobus.pkt_size_system.ruby.l1_cntrl1.sequencer.mem-master-port::system.ruby.l1_cntrl1.sequencer.pio-slave-port       411088                       # Cumulative packet size per connected master and slave (bytes)
system.iobus.pkt_size_system.ruby.l1_cntrl1.sequencer.mem-master-port::system.ruby.l1_cntrl2.sequencer.pio-slave-port         1772                       # Cumulative packet size per connected master and slave (bytes)
system.iobus.pkt_size_system.ruby.l1_cntrl1.sequencer.mem-master-port::system.ruby.l1_cntrl3.sequencer.pio-slave-port         2456                       # Cumulative packet size per connected master and slave (bytes)
system.iobus.pkt_size_system.ruby.l1_cntrl1.sequencer.mem-master-port::total       530703                       # Cumulative packet size per connected master and slave (bytes)
system.iobus.pkt_size_system.ruby.l1_cntrl2.sequencer.mem-master-port::system.pc.south_bridge.ide.pio         8860                       # Cumulative packet size per connected master and slave (bytes)
system.iobus.pkt_size_system.ruby.l1_cntrl2.sequencer.mem-master-port::system.pc.south_bridge.keyboard.pio            6                       # Cumulative packet size per connected master and slave (bytes)
system.iobus.pkt_size_system.ruby.l1_cntrl2.sequencer.mem-master-port::system.pc.com_1.pio         3360                       # Cumulative packet size per connected master and slave (bytes)
system.iobus.pkt_size_system.ruby.l1_cntrl2.sequencer.mem-master-port::system.ruby.l1_cntrl0.sequencer.pio-slave-port         2544                       # Cumulative packet size per connected master and slave (bytes)
system.iobus.pkt_size_system.ruby.l1_cntrl2.sequencer.mem-master-port::system.ruby.l1_cntrl1.sequencer.pio-slave-port         3280                       # Cumulative packet size per connected master and slave (bytes)
system.iobus.pkt_size_system.ruby.l1_cntrl2.sequencer.mem-master-port::system.ruby.l1_cntrl2.sequencer.pio-slave-port       400968                       # Cumulative packet size per connected master and slave (bytes)
system.iobus.pkt_size_system.ruby.l1_cntrl2.sequencer.mem-master-port::system.ruby.l1_cntrl3.sequencer.pio-slave-port         1228                       # Cumulative packet size per connected master and slave (bytes)
system.iobus.pkt_size_system.ruby.l1_cntrl2.sequencer.mem-master-port::total       420246                       # Cumulative packet size per connected master and slave (bytes)
system.iobus.pkt_size_system.ruby.l1_cntrl3.sequencer.mem-master-port::system.pc.south_bridge.ide.pio        11412                       # Cumulative packet size per connected master and slave (bytes)
system.iobus.pkt_size_system.ruby.l1_cntrl3.sequencer.mem-master-port::system.pc.south_bridge.keyboard.pio          128                       # Cumulative packet size per connected master and slave (bytes)
system.iobus.pkt_size_system.ruby.l1_cntrl3.sequencer.mem-master-port::system.pc.south_bridge.pic1.pio            4                       # Cumulative packet size per connected master and slave (bytes)
system.iobus.pkt_size_system.ruby.l1_cntrl3.sequencer.mem-master-port::system.pc.south_bridge.pic2.pio            7                       # Cumulative packet size per connected master and slave (bytes)
system.iobus.pkt_size_system.ruby.l1_cntrl3.sequencer.mem-master-port::system.pc.south_bridge.io_apic.pio          260                       # Cumulative packet size per connected master and slave (bytes)
system.iobus.pkt_size_system.ruby.l1_cntrl3.sequencer.mem-master-port::system.pc.com_1.pio        11987                       # Cumulative packet size per connected master and slave (bytes)
system.iobus.pkt_size_system.ruby.l1_cntrl3.sequencer.mem-master-port::system.pc.fake_com_2.pio            6                       # Cumulative packet size per connected master and slave (bytes)
system.iobus.pkt_size_system.ruby.l1_cntrl3.sequencer.mem-master-port::system.pc.fake_com_3.pio            6                       # Cumulative packet size per connected master and slave (bytes)
system.iobus.pkt_size_system.ruby.l1_cntrl3.sequencer.mem-master-port::system.pc.fake_com_4.pio            6                       # Cumulative packet size per connected master and slave (bytes)
system.iobus.pkt_size_system.ruby.l1_cntrl3.sequencer.mem-master-port::system.ruby.l1_cntrl0.sequencer.pio-slave-port         1676                       # Cumulative packet size per connected master and slave (bytes)
system.iobus.pkt_size_system.ruby.l1_cntrl3.sequencer.mem-master-port::system.ruby.l1_cntrl1.sequencer.pio-slave-port         1172                       # Cumulative packet size per connected master and slave (bytes)
system.iobus.pkt_size_system.ruby.l1_cntrl3.sequencer.mem-master-port::system.ruby.l1_cntrl2.sequencer.pio-slave-port          840                       # Cumulative packet size per connected master and slave (bytes)
system.iobus.pkt_size_system.ruby.l1_cntrl3.sequencer.mem-master-port::system.ruby.l1_cntrl3.sequencer.pio-slave-port       392652                       # Cumulative packet size per connected master and slave (bytes)
system.iobus.pkt_size_system.ruby.l1_cntrl3.sequencer.mem-master-port::system.pc.pci_host.pio          349                       # Cumulative packet size per connected master and slave (bytes)
system.iobus.pkt_size_system.ruby.l1_cntrl3.sequencer.mem-master-port::total       420505                       # Cumulative packet size per connected master and slave (bytes)
system.iobus.pkt_size::total                  1914204                       # Cumulative packet size per connected master and slave (bytes)
system.iobus.reqLayer4.occupancy                63000                       # Layer occupancy (ticks)
system.iobus.reqLayer4.utilization                0.0                       # Layer utilization (%)
system.iobus.reqLayer5.occupancy                49500                       # Layer occupancy (ticks)
system.iobus.reqLayer5.utilization                0.0                       # Layer utilization (%)
system.iobus.reqLayer6.occupancy             18838000                       # Layer occupancy (ticks)
system.iobus.reqLayer6.utilization                0.0                       # Layer utilization (%)
system.iobus.reqLayer7.occupancy                 3000                       # Layer occupancy (ticks)
system.iobus.reqLayer7.utilization                0.0                       # Layer utilization (%)
system.iobus.reqLayer0.occupancy                53000                       # Layer occupancy (ticks)
system.iobus.reqLayer0.utilization                0.0                       # Layer utilization (%)
system.iobus.reqLayer2.occupancy             65404000                       # Layer occupancy (ticks)
system.iobus.reqLayer2.utilization                0.0                       # Layer utilization (%)
system.iobus.reqLayer3.occupancy               194000                       # Layer occupancy (ticks)
system.iobus.reqLayer3.utilization                0.0                       # Layer utilization (%)
system.iobus.reqLayer8.occupancy               734993                       # Layer occupancy (ticks)
system.iobus.reqLayer8.utilization                0.0                       # Layer utilization (%)
system.iobus.reqLayer9.occupancy                12500                       # Layer occupancy (ticks)
system.iobus.reqLayer9.utilization                0.0                       # Layer utilization (%)
system.iobus.power_state.pwrStateResidencyTicks::UNDEFINED 95048621066000                       # Cumulative time (in ticks) in various power states
system.iobus.reqLayer19.occupancy           205073829                       # Layer occupancy (ticks)
system.iobus.reqLayer19.utilization               0.0                       # Layer utilization (%)
system.iobus.reqLayer17.occupancy           204889575                       # Layer occupancy (ticks)
system.iobus.reqLayer17.utilization               0.0                       # Layer utilization (%)
system.iobus.reqLayer14.occupancy                9500                       # Layer occupancy (ticks)
system.iobus.reqLayer14.utilization               0.0                       # Layer utilization (%)
system.iobus.reqLayer15.occupancy                9000                       # Layer occupancy (ticks)
system.iobus.reqLayer15.utilization               0.0                       # Layer utilization (%)
system.iobus.reqLayer12.occupancy           175037500                       # Layer occupancy (ticks)
system.iobus.reqLayer12.utilization               0.0                       # Layer utilization (%)
system.iobus.reqLayer13.occupancy                9000                       # Layer occupancy (ticks)
system.iobus.reqLayer13.utilization               0.0                       # Layer utilization (%)
system.iobus.reqLayer11.occupancy                2000                       # Layer occupancy (ticks)
system.iobus.reqLayer11.utilization               0.0                       # Layer utilization (%)
system.iobus.reqLayer18.occupancy           270713283                       # Layer occupancy (ticks)
system.iobus.reqLayer18.utilization               0.0                       # Layer utilization (%)
system.iobus.respLayer9.occupancy           179878500                       # Layer occupancy (ticks)
system.iobus.respLayer9.utilization               0.0                       # Layer utilization (%)
system.iobus.respLayer5.occupancy           352296000                       # Layer occupancy (ticks)
system.iobus.respLayer5.utilization               0.0                       # Layer utilization (%)
system.iobus.respLayer7.occupancy           168549000                       # Layer occupancy (ticks)
system.iobus.respLayer7.utilization               0.0                       # Layer utilization (%)
system.iobus.respLayer0.occupancy            36878754                       # Layer occupancy (ticks)
system.iobus.respLayer0.utilization               0.0                       # Layer utilization (%)
system.iobus.respLayer3.occupancy           211174000                       # Layer occupancy (ticks)
system.iobus.respLayer3.utilization               0.0                       # Layer utilization (%)
system.iobus.reqLayer22.occupancy              252500                       # Layer occupancy (ticks)
system.iobus.reqLayer22.utilization               0.0                       # Layer utilization (%)
system.iobus.reqLayer20.occupancy           202447695                       # Layer occupancy (ticks)
system.iobus.reqLayer20.utilization               0.0                       # Layer utilization (%)

---------- End Simulation Statistics   ----------
