
---------- Begin Simulation Statistics ----------
final_tick                               101169080807001                       # Number of ticks from beginning of simulation (restored from checkpoints and never reset)
host_inst_rate                                 935519                       # Simulator instruction rate (inst/s)
host_mem_usage                                1606156                       # Number of bytes of host memory used
host_op_rate                                  1104568                       # Simulator op (including micro ops) rate (op/s)
host_seconds                                  6881.84                       # Real time elapsed on the host
host_tick_rate                               98297912                       # Simulator tick rate (ticks/s)
sim_freq                                 1000000000000                       # Frequency of simulated ticks
sim_insts                                  6438093221                       # Number of instructions simulated
sim_ops                                    7601458956                       # Number of ops (including micro ops) simulated
sim_seconds                                  0.676471                       # Number of seconds simulated
sim_ticks                                676470594501                       # Number of ticks simulated
system.cpu0.committedInsts                          0                       # Number of instructions committed
system.cpu0.dtb.rdAccesses                          0                       # TLB accesses on read requests
system.cpu0.dtb.rdMisses                            0                       # TLB misses on read requests
system.cpu0.dtb.wrAccesses                          0                       # TLB accesses on write requests
system.cpu0.dtb.wrMisses                            0                       # TLB misses on write requests
system.cpu0.itb.rdAccesses                          0                       # TLB accesses on read requests
system.cpu0.itb.rdMisses                            0                       # TLB misses on read requests
system.cpu0.itb.wrAccesses                          0                       # TLB accesses on write requests
system.cpu0.itb.wrMisses                            0                       # TLB misses on write requests
system.cpu0.kern.inst.arm                           0                       # number of arm instructions executed
system.cpu0.kern.inst.quiesce                       0                       # number of quiesce instructions executed
system.cpu0.numCoalescedMMIO                        0                       # number of coalesced memory mapped IO requests
system.cpu0.numCycles                               0                       # number of cpu cycles simulated
system.cpu0.numExitSignal                           0                       # exits due to signal delivery
system.cpu0.numHalt                                 0                       # number of VM exits due to wait for interrupt instructions
system.cpu0.numHypercalls                           0                       # number of hypercalls
system.cpu0.numIO                                   0                       # number of VM exits due to legacy IO
system.cpu0.numInterrupts                           0                       # number of interrupts delivered
system.cpu0.numMMIO                                 0                       # number of VM exits due to memory mapped IO
system.cpu0.numVMExits                              0                       # total number of KVM exits
system.cpu0.numVMHalfEntries                        0                       # number of KVM entries to finalize pending operations
system.cpu0.numWorkItemsCompleted                   0                       # number of work items this cpu completed
system.cpu0.numWorkItemsStarted                     0                       # number of work items this cpu started
system.cpu1.committedInsts                          0                       # Number of instructions committed
system.cpu1.dtb.rdAccesses                          0                       # TLB accesses on read requests
system.cpu1.dtb.rdMisses                            0                       # TLB misses on read requests
system.cpu1.dtb.wrAccesses                          0                       # TLB accesses on write requests
system.cpu1.dtb.wrMisses                            0                       # TLB misses on write requests
system.cpu1.itb.rdAccesses                          0                       # TLB accesses on read requests
system.cpu1.itb.rdMisses                            0                       # TLB misses on read requests
system.cpu1.itb.wrAccesses                          0                       # TLB accesses on write requests
system.cpu1.itb.wrMisses                            0                       # TLB misses on write requests
system.cpu1.kern.inst.arm                           0                       # number of arm instructions executed
system.cpu1.kern.inst.quiesce                       0                       # number of quiesce instructions executed
system.cpu1.numCoalescedMMIO                        0                       # number of coalesced memory mapped IO requests
system.cpu1.numCycles                               0                       # number of cpu cycles simulated
system.cpu1.numExitSignal                           0                       # exits due to signal delivery
system.cpu1.numHalt                                 0                       # number of VM exits due to wait for interrupt instructions
system.cpu1.numHypercalls                           0                       # number of hypercalls
system.cpu1.numIO                                   0                       # number of VM exits due to legacy IO
system.cpu1.numInterrupts                           0                       # number of interrupts delivered
system.cpu1.numMMIO                                 0                       # number of VM exits due to memory mapped IO
system.cpu1.numVMExits                              0                       # total number of KVM exits
system.cpu1.numVMHalfEntries                        0                       # number of KVM entries to finalize pending operations
system.cpu1.numWorkItemsCompleted                   0                       # number of work items this cpu completed
system.cpu1.numWorkItemsStarted                     0                       # number of work items this cpu started
system.cpu2.committedInsts                          0                       # Number of instructions committed
system.cpu2.dtb.rdAccesses                          0                       # TLB accesses on read requests
system.cpu2.dtb.rdMisses                            0                       # TLB misses on read requests
system.cpu2.dtb.wrAccesses                          0                       # TLB accesses on write requests
system.cpu2.dtb.wrMisses                            0                       # TLB misses on write requests
system.cpu2.itb.rdAccesses                          0                       # TLB accesses on read requests
system.cpu2.itb.rdMisses                            0                       # TLB misses on read requests
system.cpu2.itb.wrAccesses                          0                       # TLB accesses on write requests
system.cpu2.itb.wrMisses                            0                       # TLB misses on write requests
system.cpu2.kern.inst.arm                           0                       # number of arm instructions executed
system.cpu2.kern.inst.quiesce                       0                       # number of quiesce instructions executed
system.cpu2.numCoalescedMMIO                        0                       # number of coalesced memory mapped IO requests
system.cpu2.numCycles                               0                       # number of cpu cycles simulated
system.cpu2.numExitSignal                           0                       # exits due to signal delivery
system.cpu2.numHalt                                 0                       # number of VM exits due to wait for interrupt instructions
system.cpu2.numHypercalls                           0                       # number of hypercalls
system.cpu2.numIO                                   0                       # number of VM exits due to legacy IO
system.cpu2.numInterrupts                           0                       # number of interrupts delivered
system.cpu2.numMMIO                                 0                       # number of VM exits due to memory mapped IO
system.cpu2.numVMExits                              0                       # total number of KVM exits
system.cpu2.numVMHalfEntries                        0                       # number of KVM entries to finalize pending operations
system.cpu2.numWorkItemsCompleted                   0                       # number of work items this cpu completed
system.cpu2.numWorkItemsStarted                     0                       # number of work items this cpu started
system.cpu3.committedInsts                          0                       # Number of instructions committed
system.cpu3.dtb.rdAccesses                          0                       # TLB accesses on read requests
system.cpu3.dtb.rdMisses                            0                       # TLB misses on read requests
system.cpu3.dtb.wrAccesses                          0                       # TLB accesses on write requests
system.cpu3.dtb.wrMisses                            0                       # TLB misses on write requests
system.cpu3.itb.rdAccesses                          0                       # TLB accesses on read requests
system.cpu3.itb.rdMisses                            0                       # TLB misses on read requests
system.cpu3.itb.wrAccesses                          0                       # TLB accesses on write requests
system.cpu3.itb.wrMisses                            0                       # TLB misses on write requests
system.cpu3.kern.inst.arm                           0                       # number of arm instructions executed
system.cpu3.kern.inst.quiesce                       0                       # number of quiesce instructions executed
system.cpu3.numCoalescedMMIO                        0                       # number of coalesced memory mapped IO requests
system.cpu3.numCycles                               0                       # number of cpu cycles simulated
system.cpu3.numExitSignal                           0                       # exits due to signal delivery
system.cpu3.numHalt                                 0                       # number of VM exits due to wait for interrupt instructions
system.cpu3.numHypercalls                           0                       # number of hypercalls
system.cpu3.numIO                                   0                       # number of VM exits due to legacy IO
system.cpu3.numInterrupts                           0                       # number of interrupts delivered
system.cpu3.numMMIO                                 0                       # number of VM exits due to memory mapped IO
system.cpu3.numVMExits                              0                       # total number of KVM exits
system.cpu3.numVMHalfEntries                        0                       # number of KVM entries to finalize pending operations
system.cpu3.numWorkItemsCompleted                   0                       # number of work items this cpu completed
system.cpu3.numWorkItemsStarted                     0                       # number of work items this cpu started
system.pc.south_bridge.ide.disks.dma_read_bytes       249856                       # Number of bytes transfered via DMA reads (not PRD).
system.pc.south_bridge.ide.disks.dma_read_full_pages           61                       # Number of full page size DMA reads (not PRD).
system.pc.south_bridge.ide.disks.dma_read_txs           61                       # Number of DMA read transactions (not PRD).
system.pc.south_bridge.ide.disks.dma_write_bytes            0                       # Number of bytes transfered via DMA writes.
system.pc.south_bridge.ide.disks.dma_write_full_pages            0                       # Number of full page size DMA writes.
system.pc.south_bridge.ide.disks.dma_write_txs            0                       # Number of DMA write transactions.
system.ruby.DMA_Controller.I.allocI_load |        3913    100.00%    100.00% |           0      0.00%    100.00%
system.ruby.DMA_Controller.I.allocI_load::total         3913                      
system.ruby.DMA_Controller.I.deallocnet2from_in |        2889    100.00%    100.00% |           0      0.00%    100.00%
system.ruby.DMA_Controller.I.deallocnet2from_in::total         2889                      
system.ruby.DMA_Controller.S.SloadSEvent |          51    100.00%    100.00% |           0      0.00%    100.00%
system.ruby.DMA_Controller.S.SloadSEvent::total           51                      
system.ruby.DMA_Controller.S.allocTBE    |        2892    100.00%    100.00% |           0      0.00%    100.00%
system.ruby.DMA_Controller.S.allocTBE::total         2892                      
system.ruby.DMA_Controller.S.externalloadSnet0from_in |        3886    100.00%    100.00% |           0      0.00%    100.00%
system.ruby.DMA_Controller.S.externalloadSnet0from_in::total         3886                      
system.ruby.DMA_Controller.S.externalloadSrespfrom_in |          27    100.00%    100.00% |           0      0.00%    100.00%
system.ruby.DMA_Controller.S.externalloadSrespfrom_in::total           27                      
system.ruby.DMA_Controller.S_evict.Stallmandatory_in |        8663    100.00%    100.00% |           0      0.00%    100.00%
system.ruby.DMA_Controller.S_evict.Stallmandatory_in::total         8663                      
system.ruby.DMA_Controller.SloadSEvent   |          51    100.00%    100.00% |           0      0.00%    100.00%
system.ruby.DMA_Controller.SloadSEvent::total           51                      
system.ruby.DMA_Controller.Stallmandatory_in |        8663    100.00%    100.00% |           0      0.00%    100.00%
system.ruby.DMA_Controller.Stallmandatory_in::total         8663                      
system.ruby.DMA_Controller.allocI_load   |        3913    100.00%    100.00% |           0      0.00%    100.00%
system.ruby.DMA_Controller.allocI_load::total         3913                      
system.ruby.DMA_Controller.allocTBE      |        2892    100.00%    100.00% |           0      0.00%    100.00%
system.ruby.DMA_Controller.allocTBE::total         2892                      
system.ruby.DMA_Controller.deallocnet2from_in |        2889    100.00%    100.00% |           0      0.00%    100.00%
system.ruby.DMA_Controller.deallocnet2from_in::total         2889                      
system.ruby.DMA_Controller.externalloadSnet0from_in |        3886    100.00%    100.00% |           0      0.00%    100.00%
system.ruby.DMA_Controller.externalloadSnet0from_in::total         3886                      
system.ruby.DMA_Controller.externalloadSrespfrom_in |          27    100.00%    100.00% |           0      0.00%    100.00%
system.ruby.DMA_Controller.externalloadSrespfrom_in::total           27                      
system.ruby.Directory_Controller.I.allocTBE |      566493     24.93%     24.93% |      581088     25.57%     50.50% |      547759     24.11%     74.61% |      577032     25.39%    100.00%
system.ruby.Directory_Controller.I.allocTBE::total      2272372                      
system.ruby.Directory_Controller.I.deallocTBE |      565681     24.93%     24.93% |      580284     25.57%     50.50% |      546942     24.10%     74.61% |      576231     25.39%    100.00%
system.ruby.Directory_Controller.I.deallocTBE::total      2269138                      
system.ruby.Directory_Controller.I_GetML1C1_0.Stallreqto_in |         119     21.33%     21.33% |         125     22.40%     43.73% |         159     28.49%     72.22% |         155     27.78%    100.00%
system.ruby.Directory_Controller.I_GetML1C1_0.Stallreqto_in::total          558                      
system.ruby.Directory_Controller.I_GetSL1C1_0.Stallreqto_in |        1050     25.43%     25.43% |        1185     28.70%     54.13% |         828     20.05%     74.18% |        1066     25.82%    100.00%
system.ruby.Directory_Controller.I_GetSL1C1_0.Stallreqto_in::total         4129                      
system.ruby.Directory_Controller.M.allocTBE |      287260     24.68%     24.68% |      296019     25.43%     50.11% |      286374     24.60%     74.71% |      294379     25.29%    100.00%
system.ruby.Directory_Controller.M.allocTBE::total      1164032                      
system.ruby.Directory_Controller.M.deallocTBE |      287383     24.68%     24.68% |      296143     25.43%     50.11% |      286502     24.60%     74.71% |      294496     25.29%    100.00%
system.ruby.Directory_Controller.M.deallocTBE::total      1164524                      
system.ruby.Directory_Controller.M_GetS.Progress |       16338     24.91%     24.91% |       16407     25.02%     49.93% |       16268     24.81%     74.74% |       16566     25.26%    100.00%
system.ruby.Directory_Controller.M_GetS.Progress::total        65579                      
system.ruby.Directory_Controller.M_GetS.Stallreqto_in |         230      8.65%      8.65% |         215      8.08%     16.73% |        1212     45.56%     62.29% |        1003     37.71%    100.00%
system.ruby.Directory_Controller.M_GetS.Stallreqto_in::total         2660                      
system.ruby.Directory_Controller.M_GetS_WBL1C1_0.Stallreqto_in |        3998     21.13%     21.13% |        4976     26.30%     47.43% |        4779     25.26%     72.69% |        5167     27.31%    100.00%
system.ruby.Directory_Controller.M_GetS_WBL1C1_0.Stallreqto_in::total        18920                      
system.ruby.Directory_Controller.Progress |       16338     24.91%     24.91% |       16407     25.02%     49.93% |       16268     24.81%     74.74% |       16566     25.26%    100.00%
system.ruby.Directory_Controller.Progress::total        65579                      
system.ruby.Directory_Controller.S.allocTBE |      716363     24.97%     24.97% |      721832     25.16%     50.12% |      713601     24.87%     74.99% |      717597     25.01%    100.00%
system.ruby.Directory_Controller.S.allocTBE::total      2869393                      
system.ruby.Directory_Controller.S.deallocTBE |      717052     24.97%     24.97% |      722512     25.16%     50.12% |      714290     24.87%     74.99% |      718280     25.01%    100.00%
system.ruby.Directory_Controller.S.deallocTBE::total      2872134                      
system.ruby.Directory_Controller.S_GetML1C1_0.Stallreqto_in |           8      2.11%      2.11% |           0      0.00%      2.11% |         362     95.51%     97.63% |           9      2.37%    100.00%
system.ruby.Directory_Controller.S_GetML1C1_0.Stallreqto_in::total          379                      
system.ruby.Directory_Controller.S_GetML1C1_1.Stallreqto_in |        2358     21.90%     21.90% |        2478     23.01%     44.91% |        3509     32.59%     77.50% |        2423     22.50%    100.00%
system.ruby.Directory_Controller.S_GetML1C1_1.Stallreqto_in::total        10768                      
system.ruby.Directory_Controller.S_GetML1C1_2.Stallreqto_in |          11     40.74%     40.74% |           7     25.93%     66.67% |           1      3.70%     70.37% |           8     29.63%    100.00%
system.ruby.Directory_Controller.S_GetML1C1_2.Stallreqto_in::total           27                      
system.ruby.Directory_Controller.S_GetSL1C1_0.Stallreqto_in |         300     12.86%     12.86% |         253     10.85%     23.71% |        1189     50.99%     74.70% |         590     25.30%    100.00%
system.ruby.Directory_Controller.S_GetSL1C1_0.Stallreqto_in::total         2332                      
system.ruby.Directory_Controller.Stallreqto_in |        8074     20.30%     20.30% |        9239     23.23%     43.53% |       12039     30.27%     73.80% |       10421     26.20%    100.00%
system.ruby.Directory_Controller.Stallreqto_in::total        39773                      
system.ruby.Directory_Controller.allocTBE |     1570116     24.90%     24.90% |     1598939     25.36%     50.26% |     1547734     24.54%     74.80% |     1589008     25.20%    100.00%
system.ruby.Directory_Controller.allocTBE::total      6305797                      
system.ruby.Directory_Controller.deallocTBE |     1570116     24.90%     24.90% |     1598939     25.36%     50.26% |     1547734     24.54%     74.80% |     1589007     25.20%    100.00%
system.ruby.Directory_Controller.deallocTBE::total      6305796                      
system.ruby.IFETCH.hit_latency_hist_seqr::bucket_size            1                      
system.ruby.IFETCH.hit_latency_hist_seqr::max_bucket            9                      
system.ruby.IFETCH.hit_latency_hist_seqr::samples   1996899562                      
system.ruby.IFETCH.hit_latency_hist_seqr |  1996899562    100.00%    100.00% |           0      0.00%    100.00% |           0      0.00%    100.00% |           0      0.00%    100.00% |           0      0.00%    100.00% |           0      0.00%    100.00% |           0      0.00%    100.00% |           0      0.00%    100.00% |           0      0.00%    100.00% |           0      0.00%    100.00%
system.ruby.IFETCH.hit_latency_hist_seqr::total   1996899562                      
system.ruby.IFETCH.latency_hist_seqr::bucket_size            1                      
system.ruby.IFETCH.latency_hist_seqr::max_bucket            9                      
system.ruby.IFETCH.latency_hist_seqr::samples   1997287311                      
system.ruby.IFETCH.latency_hist_seqr     |  1997287311    100.00%    100.00% |           0      0.00%    100.00% |           0      0.00%    100.00% |           0      0.00%    100.00% |           0      0.00%    100.00% |           0      0.00%    100.00% |           0      0.00%    100.00% |           0      0.00%    100.00% |           0      0.00%    100.00% |           0      0.00%    100.00%
system.ruby.IFETCH.latency_hist_seqr::total   1997287311                      
system.ruby.IFETCH.miss_latency_hist_seqr::bucket_size            1                      
system.ruby.IFETCH.miss_latency_hist_seqr::max_bucket            9                      
system.ruby.IFETCH.miss_latency_hist_seqr::samples       387749                      
system.ruby.IFETCH.miss_latency_hist_seqr |      387749    100.00%    100.00% |           0      0.00%    100.00% |           0      0.00%    100.00% |           0      0.00%    100.00% |           0      0.00%    100.00% |           0      0.00%    100.00% |           0      0.00%    100.00% |           0      0.00%    100.00% |           0      0.00%    100.00% |           0      0.00%    100.00%
system.ruby.IFETCH.miss_latency_hist_seqr::total       387749                      
system.ruby.L1Cache_Controller.I.allocI_load |      620208     26.58%     26.58% |      585616     25.10%     51.67% |      565563     24.24%     75.91% |      562207     24.09%    100.00%
system.ruby.L1Cache_Controller.I.allocI_load::total      2333594                      
system.ruby.L1Cache_Controller.I.allocI_store |      161656     25.99%     25.99% |      150534     24.20%     50.19% |      154669     24.87%     75.06% |      155118     24.94%    100.00%
system.ruby.L1Cache_Controller.I.allocI_store::total       621977                      
system.ruby.L1Cache_Controller.I.deallocnet0from_in |      288554     26.27%     26.27% |      275409     25.07%     51.34% |      266145     24.23%     75.57% |      268336     24.43%    100.00%
system.ruby.L1Cache_Controller.I.deallocnet0from_in::total      1098444                      
system.ruby.L1Cache_Controller.I.deallocnet1from_in |           4     50.00%     50.00% |           0      0.00%     50.00% |           1     12.50%     62.50% |           3     37.50%    100.00%
system.ruby.L1Cache_Controller.I.deallocnet1from_in::total            8                      
system.ruby.L1Cache_Controller.I.deallocnet2from_in |      492303     26.57%     26.57% |      459749     24.81%     51.38% |      453088     24.45%     75.83% |      447971     24.17%    100.00%
system.ruby.L1Cache_Controller.I.deallocnet2from_in::total      1853111                      
system.ruby.L1Cache_Controller.I_evict.Progress |           4     50.00%     50.00% |           0      0.00%     50.00% |           1     12.50%     62.50% |           3     37.50%    100.00%
system.ruby.L1Cache_Controller.I_evict.Progress::total            8                      
system.ruby.L1Cache_Controller.I_evict.Stallmandatory_in |           3     42.86%     42.86% |           0      0.00%     42.86% |           0      0.00%     42.86% |           4     57.14%    100.00%
system.ruby.L1Cache_Controller.I_evict.Stallmandatory_in::total            7                      
system.ruby.L1Cache_Controller.I_store.Progress |        1001     30.29%     30.29% |        1064     32.19%     62.48% |         640     19.36%     81.85% |         600     18.15%    100.00%
system.ruby.L1Cache_Controller.I_store.Progress::total         3305                      
system.ruby.L1Cache_Controller.I_store.Stallnet0from_in |         773     20.87%     20.87% |         874     23.60%     44.48% |         989     26.71%     71.19% |        1067     28.81%    100.00%
system.ruby.L1Cache_Controller.I_store.Stallnet0from_in::total         3703                      
system.ruby.L1Cache_Controller.I_store_GetM_Ack_AD.Progress |        1356     86.26%     86.26% |          83      5.28%     91.54% |          67      4.26%     95.80% |          66      4.20%    100.00%
system.ruby.L1Cache_Controller.I_store_GetM_Ack_AD.Progress::total         1572                      
system.ruby.L1Cache_Controller.I_store_GetM_Ack_AD.Stallnet0from_in |          13     17.81%     17.81% |          17     23.29%     41.10% |          24     32.88%     73.97% |          19     26.03%    100.00%
system.ruby.L1Cache_Controller.I_store_GetM_Ack_AD.Stallnet0from_in::total           73                      
system.ruby.L1Cache_Controller.M.MloadMEvent |    18549143     25.48%     25.48% |    18737953     25.74%     51.21% |    17888627     24.57%     75.78% |    17631704     24.22%    100.00%
system.ruby.L1Cache_Controller.M.MloadMEvent::total     72807427                      
system.ruby.L1Cache_Controller.M.MstoreMEvent |    15335888     26.20%     26.20% |    14998073     25.62%     51.82% |    14278153     24.39%     76.20% |    13930273     23.80%    100.00%
system.ruby.L1Cache_Controller.M.MstoreMEvent::total     58542387                      
system.ruby.L1Cache_Controller.M.allocTBE |      311620     26.77%     26.77% |      289981     24.91%     51.68% |      282036     24.23%     75.91% |      280387     24.09%    100.00%
system.ruby.L1Cache_Controller.M.allocTBE::total      1164024                      
system.ruby.L1Cache_Controller.M.externalstoreMnet1from_in |      275546     27.11%     27.11% |      252300     24.82%     51.93% |      248276     24.43%     76.35% |      240358     23.65%    100.00%
system.ruby.L1Cache_Controller.M.externalstoreMnet1from_in::total      1016480                      
system.ruby.L1Cache_Controller.M.externalstoreMrespfrom_in |       36223     24.47%     24.47% |       37799     25.53%     50.00% |       33856     22.87%     72.87% |       40158     27.13%    100.00%
system.ruby.L1Cache_Controller.M.externalstoreMrespfrom_in::total       148036                      
system.ruby.L1Cache_Controller.M_evict.Stallmandatory_in |        8349     22.30%     22.30% |        8222     21.96%     44.26% |       10530     28.13%     72.39% |       10336     27.61%    100.00%
system.ruby.L1Cache_Controller.M_evict.Stallmandatory_in::total        37437                      
system.ruby.L1Cache_Controller.MloadMEvent |    18549143     25.48%     25.48% |    18737953     25.74%     51.21% |    17888627     24.57%     75.78% |    17631704     24.22%    100.00%
system.ruby.L1Cache_Controller.MloadMEvent::total     72807427                      
system.ruby.L1Cache_Controller.MstoreMEvent |    15335888     26.20%     26.20% |    14998073     25.62%     51.82% |    14278153     24.39%     76.20% |    13930273     23.80%    100.00%
system.ruby.L1Cache_Controller.MstoreMEvent::total     58542387                      
system.ruby.L1Cache_Controller.Progress  |      174108     28.18%     28.18% |      161182     26.09%     54.27% |      140472     22.74%     77.00% |      142077     23.00%    100.00%
system.ruby.L1Cache_Controller.Progress::total       617839                      
system.ruby.L1Cache_Controller.S.SloadSEvent |   589316512     25.54%     25.54% |   585898461     25.39%     50.94% |   565186109     24.50%     75.43% |   566869140     24.57%    100.00%
system.ruby.L1Cache_Controller.S.SloadSEvent::total   2307270222                      
system.ruby.L1Cache_Controller.S.allocTBE |      642418     26.82%     26.82% |      599315     25.02%     51.83% |      580551     24.23%     76.07% |      573371     23.93%    100.00%
system.ruby.L1Cache_Controller.S.allocTBE::total      2395655                      
system.ruby.L1Cache_Controller.S.deallocTBE |       23064     35.17%     35.17% |       14572     22.22%     57.39% |       15890     24.23%     81.62% |       12050     18.38%    100.00%
system.ruby.L1Cache_Controller.S.deallocTBE::total        65576                      
system.ruby.L1Cache_Controller.S.externalloadSnet0from_in |      605735     26.71%     26.71% |      564800     24.90%     51.61% |      553742     24.42%     76.02% |      543763     23.98%    100.00%
system.ruby.L1Cache_Controller.S.externalloadSnet0from_in::total      2268040                      
system.ruby.L1Cache_Controller.S.externalloadSrespfrom_in |       14473     22.08%     22.08% |       20816     31.75%     53.83% |       11820     18.03%     71.87% |       18443     28.13%    100.00%
system.ruby.L1Cache_Controller.S.externalloadSrespfrom_in::total        65552                      
system.ruby.L1Cache_Controller.S_evict.Progress |           2     66.67%     66.67% |           0      0.00%     66.67% |           1     33.33%    100.00% |           0      0.00%    100.00%
system.ruby.L1Cache_Controller.S_evict.Progress::total            3                      
system.ruby.L1Cache_Controller.S_evict.Stallmandatory_in |        1594     31.78%     31.78% |        1161     23.15%     54.92% |        1100     21.93%     76.85% |        1161     23.15%    100.00%
system.ruby.L1Cache_Controller.S_evict.Stallmandatory_in::total         5016                      
system.ruby.L1Cache_Controller.S_evict.Stallnet1from_in |           1     50.00%     50.00% |           0      0.00%     50.00% |           1     50.00%    100.00% |           0      0.00%    100.00%
system.ruby.L1Cache_Controller.S_evict.Stallnet1from_in::total            2                      
system.ruby.L1Cache_Controller.S_store.Progress |      150113     27.67%     27.67% |      139566     25.72%     53.39% |      127463     23.49%     76.89% |      125398     23.11%    100.00%
system.ruby.L1Cache_Controller.S_store.Progress::total       542540                      
system.ruby.L1Cache_Controller.S_store.Stallnet0from_in |        2012     30.86%     30.86% |        2083     31.95%     62.82% |        1230     18.87%     81.68% |        1194     18.32%    100.00%
system.ruby.L1Cache_Controller.S_store.Stallnet0from_in::total         6519                      
system.ruby.L1Cache_Controller.S_store_GetM_Ack_AD.Progress |       21632     30.72%     30.72% |       20469     29.07%     59.79% |       12300     17.47%     77.26% |       16010     22.74%    100.00%
system.ruby.L1Cache_Controller.S_store_GetM_Ack_AD.Progress::total        70411                      
system.ruby.L1Cache_Controller.S_store_GetM_Ack_AD.Stallnet0from_in |         892     30.21%     30.21% |         917     31.05%     61.26% |         591     20.01%     81.27% |         553     18.73%    100.00%
system.ruby.L1Cache_Controller.S_store_GetM_Ack_AD.Stallnet0from_in::total         2953                      
system.ruby.L1Cache_Controller.SloadSEvent |   589316512     25.54%     25.54% |   585898461     25.39%     50.94% |   565186109     24.50%     75.43% |   566869140     24.57%    100.00%
system.ruby.L1Cache_Controller.SloadSEvent::total   2307270222                      
system.ruby.L1Cache_Controller.Stallmandatory_in |        9946     23.42%     23.42% |        9383     22.10%     45.52% |       11630     27.39%     72.91% |       11501     27.09%    100.00%
system.ruby.L1Cache_Controller.Stallmandatory_in::total        42460                      
system.ruby.L1Cache_Controller.Stallnet0from_in |        3690     27.85%     27.85% |        3891     29.37%     57.22% |        2834     21.39%     78.62% |        2833     21.38%    100.00%
system.ruby.L1Cache_Controller.Stallnet0from_in::total        13248                      
system.ruby.L1Cache_Controller.Stallnet1from_in |           1     50.00%     50.00% |           0      0.00%     50.00% |           1     50.00%    100.00% |           0      0.00%    100.00%
system.ruby.L1Cache_Controller.Stallnet1from_in::total            2                      
system.ruby.L1Cache_Controller.allocI_load |      620208     26.58%     26.58% |      585616     25.10%     51.67% |      565563     24.24%     75.91% |      562207     24.09%    100.00%
system.ruby.L1Cache_Controller.allocI_load::total      2333594                      
system.ruby.L1Cache_Controller.allocI_store |      161656     25.99%     25.99% |      150534     24.20%     50.19% |      154669     24.87%     75.06% |      155118     24.94%    100.00%
system.ruby.L1Cache_Controller.allocI_store::total       621977                      
system.ruby.L1Cache_Controller.allocTBE  |      954038     26.80%     26.80% |      889296     24.98%     51.78% |      862587     24.23%     76.02% |      853758     23.98%    100.00%
system.ruby.L1Cache_Controller.allocTBE::total      3559679                      
system.ruby.L1Cache_Controller.deallocTBE |       23064     35.17%     35.17% |       14572     22.22%     57.39% |       15890     24.23%     81.62% |       12050     18.38%    100.00%
system.ruby.L1Cache_Controller.deallocTBE::total        65576                      
system.ruby.L1Cache_Controller.deallocnet0from_in |      288554     26.27%     26.27% |      275409     25.07%     51.34% |      266145     24.23%     75.57% |      268336     24.43%    100.00%
system.ruby.L1Cache_Controller.deallocnet0from_in::total      1098444                      
system.ruby.L1Cache_Controller.deallocnet1from_in |           4     50.00%     50.00% |           0      0.00%     50.00% |           1     12.50%     62.50% |           3     37.50%    100.00%
system.ruby.L1Cache_Controller.deallocnet1from_in::total            8                      
system.ruby.L1Cache_Controller.deallocnet2from_in |      492303     26.57%     26.57% |      459749     24.81%     51.38% |      453088     24.45%     75.83% |      447971     24.17%    100.00%
system.ruby.L1Cache_Controller.deallocnet2from_in::total      1853111                      
system.ruby.L1Cache_Controller.externalloadSnet0from_in |      605735     26.71%     26.71% |      564800     24.90%     51.61% |      553742     24.42%     76.02% |      543763     23.98%    100.00%
system.ruby.L1Cache_Controller.externalloadSnet0from_in::total      2268040                      
system.ruby.L1Cache_Controller.externalloadSrespfrom_in |       14473     22.08%     22.08% |       20816     31.75%     53.83% |       11820     18.03%     71.87% |       18443     28.13%    100.00%
system.ruby.L1Cache_Controller.externalloadSrespfrom_in::total        65552                      
system.ruby.L1Cache_Controller.externalstoreMnet1from_in |      275546     27.11%     27.11% |      252300     24.82%     51.93% |      248276     24.43%     76.35% |      240358     23.65%    100.00%
system.ruby.L1Cache_Controller.externalstoreMnet1from_in::total      1016480                      
system.ruby.L1Cache_Controller.externalstoreMrespfrom_in |       36223     24.47%     24.47% |       37799     25.53%     50.00% |       33856     22.87%     72.87% |       40158     27.13%    100.00%
system.ruby.L1Cache_Controller.externalstoreMrespfrom_in::total       148036                      
system.ruby.LD.hit_latency_hist_seqr::bucket_size            1                      
system.ruby.LD.hit_latency_hist_seqr::max_bucket            9                      
system.ruby.LD.hit_latency_hist_seqr::samples    383178087                      
system.ruby.LD.hit_latency_hist_seqr     |   383178087    100.00%    100.00% |           0      0.00%    100.00% |           0      0.00%    100.00% |           0      0.00%    100.00% |           0      0.00%    100.00% |           0      0.00%    100.00% |           0      0.00%    100.00% |           0      0.00%    100.00% |           0      0.00%    100.00% |           0      0.00%    100.00%
system.ruby.LD.hit_latency_hist_seqr::total    383178087                      
system.ruby.LD.latency_hist_seqr::bucket_size            1                      
system.ruby.LD.latency_hist_seqr::max_bucket            9                      
system.ruby.LD.latency_hist_seqr::samples    385123930                      
system.ruby.LD.latency_hist_seqr         |   385123930    100.00%    100.00% |           0      0.00%    100.00% |           0      0.00%    100.00% |           0      0.00%    100.00% |           0      0.00%    100.00% |           0      0.00%    100.00% |           0      0.00%    100.00% |           0      0.00%    100.00% |           0      0.00%    100.00% |           0      0.00%    100.00%
system.ruby.LD.latency_hist_seqr::total     385123930                      
system.ruby.LD.miss_latency_hist_seqr::bucket_size            1                      
system.ruby.LD.miss_latency_hist_seqr::max_bucket            9                      
system.ruby.LD.miss_latency_hist_seqr::samples      1945843                      
system.ruby.LD.miss_latency_hist_seqr    |     1945843    100.00%    100.00% |           0      0.00%    100.00% |           0      0.00%    100.00% |           0      0.00%    100.00% |           0      0.00%    100.00% |           0      0.00%    100.00% |           0      0.00%    100.00% |           0      0.00%    100.00% |           0      0.00%    100.00% |           0      0.00%    100.00%
system.ruby.LD.miss_latency_hist_seqr::total      1945843                      
system.ruby.Locked_RMW_Read.hit_latency_hist_seqr::bucket_size            1                      
system.ruby.Locked_RMW_Read.hit_latency_hist_seqr::max_bucket            9                      
system.ruby.Locked_RMW_Read.hit_latency_hist_seqr::samples      2088452                      
system.ruby.Locked_RMW_Read.hit_latency_hist_seqr |     2088452    100.00%    100.00% |           0      0.00%    100.00% |           0      0.00%    100.00% |           0      0.00%    100.00% |           0      0.00%    100.00% |           0      0.00%    100.00% |           0      0.00%    100.00% |           0      0.00%    100.00% |           0      0.00%    100.00% |           0      0.00%    100.00%
system.ruby.Locked_RMW_Read.hit_latency_hist_seqr::total      2088452                      
system.ruby.Locked_RMW_Read.latency_hist_seqr::bucket_size            1                      
system.ruby.Locked_RMW_Read.latency_hist_seqr::max_bucket            9                      
system.ruby.Locked_RMW_Read.latency_hist_seqr::samples      2188713                      
system.ruby.Locked_RMW_Read.latency_hist_seqr |     2188713    100.00%    100.00% |           0      0.00%    100.00% |           0      0.00%    100.00% |           0      0.00%    100.00% |           0      0.00%    100.00% |           0      0.00%    100.00% |           0      0.00%    100.00% |           0      0.00%    100.00% |           0      0.00%    100.00% |           0      0.00%    100.00%
system.ruby.Locked_RMW_Read.latency_hist_seqr::total      2188713                      
system.ruby.Locked_RMW_Read.miss_latency_hist_seqr::bucket_size            1                      
system.ruby.Locked_RMW_Read.miss_latency_hist_seqr::max_bucket            9                      
system.ruby.Locked_RMW_Read.miss_latency_hist_seqr::samples       100261                      
system.ruby.Locked_RMW_Read.miss_latency_hist_seqr |      100261    100.00%    100.00% |           0      0.00%    100.00% |           0      0.00%    100.00% |           0      0.00%    100.00% |           0      0.00%    100.00% |           0      0.00%    100.00% |           0      0.00%    100.00% |           0      0.00%    100.00% |           0      0.00%    100.00% |           0      0.00%    100.00%
system.ruby.Locked_RMW_Read.miss_latency_hist_seqr::total       100261                      
system.ruby.Locked_RMW_Write.hit_latency_hist_seqr::bucket_size            1                      
system.ruby.Locked_RMW_Write.hit_latency_hist_seqr::max_bucket            9                      
system.ruby.Locked_RMW_Write.hit_latency_hist_seqr::samples      2188713                      
system.ruby.Locked_RMW_Write.hit_latency_hist_seqr |     2188713    100.00%    100.00% |           0      0.00%    100.00% |           0      0.00%    100.00% |           0      0.00%    100.00% |           0      0.00%    100.00% |           0      0.00%    100.00% |           0      0.00%    100.00% |           0      0.00%    100.00% |           0      0.00%    100.00% |           0      0.00%    100.00%
system.ruby.Locked_RMW_Write.hit_latency_hist_seqr::total      2188713                      
system.ruby.Locked_RMW_Write.latency_hist_seqr::bucket_size            1                      
system.ruby.Locked_RMW_Write.latency_hist_seqr::max_bucket            9                      
system.ruby.Locked_RMW_Write.latency_hist_seqr::samples      2188713                      
system.ruby.Locked_RMW_Write.latency_hist_seqr |     2188713    100.00%    100.00% |           0      0.00%    100.00% |           0      0.00%    100.00% |           0      0.00%    100.00% |           0      0.00%    100.00% |           0      0.00%    100.00% |           0      0.00%    100.00% |           0      0.00%    100.00% |           0      0.00%    100.00% |           0      0.00%    100.00%
system.ruby.Locked_RMW_Write.latency_hist_seqr::total      2188713                      
system.ruby.RMW_Read.hit_latency_hist_seqr::bucket_size            1                      
system.ruby.RMW_Read.hit_latency_hist_seqr::max_bucket            9                      
system.ruby.RMW_Read.hit_latency_hist_seqr::samples      3212193                      
system.ruby.RMW_Read.hit_latency_hist_seqr |     3212193    100.00%    100.00% |           0      0.00%    100.00% |           0      0.00%    100.00% |           0      0.00%    100.00% |           0      0.00%    100.00% |           0      0.00%    100.00% |           0      0.00%    100.00% |           0      0.00%    100.00% |           0      0.00%    100.00% |           0      0.00%    100.00%
system.ruby.RMW_Read.hit_latency_hist_seqr::total      3212193                      
system.ruby.RMW_Read.latency_hist_seqr::bucket_size            1                      
system.ruby.RMW_Read.latency_hist_seqr::max_bucket            9                      
system.ruby.RMW_Read.latency_hist_seqr::samples      3229838                      
system.ruby.RMW_Read.latency_hist_seqr   |     3229838    100.00%    100.00% |           0      0.00%    100.00% |           0      0.00%    100.00% |           0      0.00%    100.00% |           0      0.00%    100.00% |           0      0.00%    100.00% |           0      0.00%    100.00% |           0      0.00%    100.00% |           0      0.00%    100.00% |           0      0.00%    100.00%
system.ruby.RMW_Read.latency_hist_seqr::total      3229838                      
system.ruby.RMW_Read.miss_latency_hist_seqr::bucket_size            1                      
system.ruby.RMW_Read.miss_latency_hist_seqr::max_bucket            9                      
system.ruby.RMW_Read.miss_latency_hist_seqr::samples        17645                      
system.ruby.RMW_Read.miss_latency_hist_seqr |       17645    100.00%    100.00% |           0      0.00%    100.00% |           0      0.00%    100.00% |           0      0.00%    100.00% |           0      0.00%    100.00% |           0      0.00%    100.00% |           0      0.00%    100.00% |           0      0.00%    100.00% |           0      0.00%    100.00% |           0      0.00%    100.00%
system.ruby.RMW_Read.miss_latency_hist_seqr::total        17645                      
system.ruby.ST.hit_latency_hist_seqr::bucket_size            1                      
system.ruby.ST.hit_latency_hist_seqr::max_bucket            9                      
system.ruby.ST.hit_latency_hist_seqr::samples     51053029                      
system.ruby.ST.hit_latency_hist_seqr     |    51053029    100.00%    100.00% |           0      0.00%    100.00% |           0      0.00%    100.00% |           0      0.00%    100.00% |           0      0.00%    100.00% |           0      0.00%    100.00% |           0      0.00%    100.00% |           0      0.00%    100.00% |           0      0.00%    100.00% |           0      0.00%    100.00%
system.ruby.ST.hit_latency_hist_seqr::total     51053029                      
system.ruby.ST.latency_hist_seqr::bucket_size            1                      
system.ruby.ST.latency_hist_seqr::max_bucket            9                      
system.ruby.ST.latency_hist_seqr::samples     52099639                      
system.ruby.ST.latency_hist_seqr         |    52099639    100.00%    100.00% |           0      0.00%    100.00% |           0      0.00%    100.00% |           0      0.00%    100.00% |           0      0.00%    100.00% |           0      0.00%    100.00% |           0      0.00%    100.00% |           0      0.00%    100.00% |           0      0.00%    100.00% |           0      0.00%    100.00%
system.ruby.ST.latency_hist_seqr::total      52099639                      
system.ruby.ST.miss_latency_hist_seqr::bucket_size            1                      
system.ruby.ST.miss_latency_hist_seqr::max_bucket            9                      
system.ruby.ST.miss_latency_hist_seqr::samples      1046610                      
system.ruby.ST.miss_latency_hist_seqr    |     1046610    100.00%    100.00% |           0      0.00%    100.00% |           0      0.00%    100.00% |           0      0.00%    100.00% |           0      0.00%    100.00% |           0      0.00%    100.00% |           0      0.00%    100.00% |           0      0.00%    100.00% |           0      0.00%    100.00% |           0      0.00%    100.00%
system.ruby.ST.miss_latency_hist_seqr::total      1046610                      
system.ruby.dir_cntrl0.net0From.avg_buf_msgs     0.003821                       # Average number of messages in buffer
system.ruby.dir_cntrl0.net0From.avg_stall_time  3001.275961                       # Average number of cycles messages are stalled in this MB
system.ruby.dir_cntrl0.net1From.avg_buf_msgs     0.001186                       # Average number of messages in buffer
system.ruby.dir_cntrl0.net1From.avg_stall_time  2999.991459                       # Average number of cycles messages are stalled in this MB
system.ruby.dir_cntrl0.net2From.avg_buf_msgs     0.002056                       # Average number of messages in buffer
system.ruby.dir_cntrl0.net2From.avg_stall_time  2999.982007                       # Average number of cycles messages are stalled in this MB
system.ruby.dir_cntrl0.reqTo.avg_buf_msgs     0.001220                       # Average number of messages in buffer
system.ruby.dir_cntrl0.reqTo.avg_stall_time  4955.008373                       # Average number of cycles messages are stalled in this MB
system.ruby.dir_cntrl0.requestToMemory.avg_buf_msgs     0.000815                       # Average number of messages in buffer
system.ruby.dir_cntrl0.requestToMemory.avg_stall_time   499.999828                       # Average number of cycles messages are stalled in this MB
system.ruby.dir_cntrl0.respTo.avg_buf_msgs     0.000012                       # Average number of messages in buffer
system.ruby.dir_cntrl0.respTo.avg_stall_time 14277.993196                       # Average number of cycles messages are stalled in this MB
system.ruby.dir_cntrl0.responseFromMemory.avg_buf_msgs     0.000817                       # Average number of messages in buffer
system.ruby.dir_cntrl0.responseFromMemory.avg_stall_time   499.999766                       # Average number of cycles messages are stalled in this MB
system.ruby.dir_cntrl1.net0From.avg_buf_msgs     0.003899                       # Average number of messages in buffer
system.ruby.dir_cntrl1.net0From.avg_stall_time  3000.886858                       # Average number of cycles messages are stalled in this MB
system.ruby.dir_cntrl1.net1From.avg_buf_msgs     0.001223                       # Average number of messages in buffer
system.ruby.dir_cntrl1.net1From.avg_stall_time  2999.993284                       # Average number of cycles messages are stalled in this MB
system.ruby.dir_cntrl1.net2From.avg_buf_msgs     0.002072                       # Average number of messages in buffer
system.ruby.dir_cntrl1.net2From.avg_stall_time  2999.970365                       # Average number of cycles messages are stalled in this MB
system.ruby.dir_cntrl1.reqTo.avg_buf_msgs     0.001250                       # Average number of messages in buffer
system.ruby.dir_cntrl1.reqTo.avg_stall_time  5079.298273                       # Average number of cycles messages are stalled in this MB
system.ruby.dir_cntrl1.requestToMemory.avg_buf_msgs     0.000834                       # Average number of messages in buffer
system.ruby.dir_cntrl1.requestToMemory.avg_stall_time   499.999918                       # Average number of cycles messages are stalled in this MB
system.ruby.dir_cntrl1.respTo.avg_buf_msgs     0.000012                       # Average number of messages in buffer
system.ruby.dir_cntrl1.respTo.avg_stall_time 14532.235557                       # Average number of cycles messages are stalled in this MB
system.ruby.dir_cntrl1.responseFromMemory.avg_buf_msgs     0.000835                       # Average number of messages in buffer
system.ruby.dir_cntrl1.responseFromMemory.avg_stall_time   499.999856                       # Average number of cycles messages are stalled in this MB
system.ruby.dir_cntrl2.net0From.avg_buf_msgs     0.003809                       # Average number of messages in buffer
system.ruby.dir_cntrl2.net0From.avg_stall_time  3002.559112                       # Average number of cycles messages are stalled in this MB
system.ruby.dir_cntrl2.net1From.avg_buf_msgs     0.001178                       # Average number of messages in buffer
system.ruby.dir_cntrl2.net1From.avg_stall_time  2999.988736                       # Average number of cycles messages are stalled in this MB
system.ruby.dir_cntrl2.net2From.avg_buf_msgs     0.002022                       # Average number of messages in buffer
system.ruby.dir_cntrl2.net2From.avg_stall_time  2999.967507                       # Average number of cycles messages are stalled in this MB
system.ruby.dir_cntrl2.reqTo.avg_buf_msgs     0.001233                       # Average number of messages in buffer
system.ruby.dir_cntrl2.reqTo.avg_stall_time  5058.158641                       # Average number of cycles messages are stalled in this MB
system.ruby.dir_cntrl2.requestToMemory.avg_buf_msgs     0.000804                       # Average number of messages in buffer
system.ruby.dir_cntrl2.requestToMemory.avg_stall_time   499.999905                       # Average number of cycles messages are stalled in this MB
system.ruby.dir_cntrl2.respTo.avg_buf_msgs     0.000012                       # Average number of messages in buffer
system.ruby.dir_cntrl2.respTo.avg_stall_time 14452.599430                       # Average number of cycles messages are stalled in this MB
system.ruby.dir_cntrl2.responseFromMemory.avg_buf_msgs     0.000805                       # Average number of messages in buffer
system.ruby.dir_cntrl2.responseFromMemory.avg_stall_time   499.999843                       # Average number of cycles messages are stalled in this MB
system.ruby.dir_cntrl3.net0From.avg_buf_msgs     0.003919                       # Average number of messages in buffer
system.ruby.dir_cntrl3.net0From.avg_stall_time  3001.772183                       # Average number of cycles messages are stalled in this MB
system.ruby.dir_cntrl3.net1From.avg_buf_msgs     0.001214                       # Average number of messages in buffer
system.ruby.dir_cntrl3.net1From.avg_stall_time  2999.994536                       # Average number of cycles messages are stalled in this MB
system.ruby.dir_cntrl3.net2From.avg_buf_msgs     0.002069                       # Average number of messages in buffer
system.ruby.dir_cntrl3.net2From.avg_stall_time  2999.984210                       # Average number of cycles messages are stalled in this MB
system.ruby.dir_cntrl3.reqTo.avg_buf_msgs     0.001252                       # Average number of messages in buffer
system.ruby.dir_cntrl3.reqTo.avg_stall_time  5102.777940                       # Average number of cycles messages are stalled in this MB
system.ruby.dir_cntrl3.requestToMemory.avg_buf_msgs     0.000827                       # Average number of messages in buffer
system.ruby.dir_cntrl3.requestToMemory.avg_stall_time   499.999996                       # Average number of cycles messages are stalled in this MB
system.ruby.dir_cntrl3.respTo.avg_buf_msgs     0.000012                       # Average number of messages in buffer
system.ruby.dir_cntrl3.respTo.avg_stall_time 14697.469145                       # Average number of cycles messages are stalled in this MB
system.ruby.dir_cntrl3.responseFromMemory.avg_buf_msgs     0.000828                       # Average number of messages in buffer
system.ruby.dir_cntrl3.responseFromMemory.avg_stall_time   499.999933                       # Average number of cycles messages are stalled in this MB
system.ruby.dma_cntrl0.cache.demand_accesses            0                       # Number of cache demand accesses
system.ruby.dma_cntrl0.cache.demand_hits            0                       # Number of cache demand hits
system.ruby.dma_cntrl0.cache.demand_misses            0                       # Number of cache demand misses
system.ruby.dma_cntrl0.fully_busy_cycles         2682                       # cycles for which number of transistions == max transitions
system.ruby.dma_cntrl0.mandatoryQueue.avg_buf_msgs     0.000078                       # Average number of messages in buffer
system.ruby.dma_cntrl0.mandatoryQueue.avg_stall_time  3437.226879                       # Average number of cycles messages are stalled in this MB
system.ruby.dma_cntrl0.net0From.avg_buf_msgs     0.000003                       # Average number of messages in buffer
system.ruby.dma_cntrl0.net0From.avg_stall_time 14643.139791                       # Average number of cycles messages are stalled in this MB
system.ruby.dma_cntrl0.net2From.avg_buf_msgs     0.000002                       # Average number of messages in buffer
system.ruby.dma_cntrl0.net2From.avg_stall_time  1898.251051                       # Average number of cycles messages are stalled in this MB
system.ruby.dma_cntrl0.reqTo.avg_buf_msgs     0.000033                       # Average number of messages in buffer
system.ruby.dma_cntrl0.reqTo.avg_stall_time    59.462720                       # Average number of cycles messages are stalled in this MB
system.ruby.dma_cntrl0.respFrom.avg_buf_msgs     0.000000                       # Average number of messages in buffer
system.ruby.dma_cntrl0.respFrom.avg_stall_time  1783.572310                       # Average number of cycles messages are stalled in this MB
system.ruby.dma_cntrl0.respTo.avg_buf_msgs     0.000000                       # Average number of messages in buffer
system.ruby.dma_cntrl0.respTo.avg_stall_time    59.294079                       # Average number of cycles messages are stalled in this MB
system.ruby.hit_latency_hist_seqr::bucket_size            1                      
system.ruby.hit_latency_hist_seqr::max_bucket            9                      
system.ruby.hit_latency_hist_seqr::samples   2438620036                      
system.ruby.hit_latency_hist_seqr        |  2438620036    100.00%    100.00% |           0      0.00%    100.00% |           0      0.00%    100.00% |           0      0.00%    100.00% |           0      0.00%    100.00% |           0      0.00%    100.00% |           0      0.00%    100.00% |           0      0.00%    100.00% |           0      0.00%    100.00% |           0      0.00%    100.00%
system.ruby.hit_latency_hist_seqr::total   2438620036                      
system.ruby.io_controller.cache.demand_accesses            0                       # Number of cache demand accesses
system.ruby.io_controller.cache.demand_hits            0                       # Number of cache demand hits
system.ruby.io_controller.cache.demand_misses            0                       # Number of cache demand misses
system.ruby.l1_cntrl0.cache.demand_accesses            0                       # Number of cache demand accesses
system.ruby.l1_cntrl0.cache.demand_hits             0                       # Number of cache demand hits
system.ruby.l1_cntrl0.cache.demand_misses            0                       # Number of cache demand misses
system.ruby.l1_cntrl0.fully_busy_cycles            92                       # cycles for which number of transistions == max transitions
system.ruby.l1_cntrl0.mandatoryQueue.avg_buf_msgs     0.477115                       # Average number of messages in buffer
system.ruby.l1_cntrl0.mandatoryQueue.avg_stall_time  1250.537612                       # Average number of cycles messages are stalled in this MB
system.ruby.l1_cntrl0.net0From.avg_buf_msgs    35.790490                       # Average number of messages in buffer
system.ruby.l1_cntrl0.net0From.avg_stall_time 15513.992721                       # Average number of cycles messages are stalled in this MB
system.ruby.l1_cntrl0.net1From.avg_buf_msgs     0.000217                       # Average number of messages in buffer
system.ruby.l1_cntrl0.net1From.avg_stall_time 16519.612361                       # Average number of cycles messages are stalled in this MB
system.ruby.l1_cntrl0.net2From.avg_buf_msgs     0.000365                       # Average number of messages in buffer
system.ruby.l1_cntrl0.net2From.avg_stall_time  6509.612537                       # Average number of cycles messages are stalled in this MB
system.ruby.l1_cntrl0.reqTo.avg_buf_msgs     0.001239                       # Average number of messages in buffer
system.ruby.l1_cntrl0.reqTo.avg_stall_time   500.001313                       # Average number of cycles messages are stalled in this MB
system.ruby.l1_cntrl0.respFrom.avg_buf_msgs     0.000041                       # Average number of messages in buffer
system.ruby.l1_cntrl0.respFrom.avg_stall_time 14258.476477                       # Average number of cycles messages are stalled in this MB
system.ruby.l1_cntrl0.respTo.avg_buf_msgs     0.000079                       # Average number of messages in buffer
system.ruby.l1_cntrl0.respTo.avg_stall_time   695.595334                       # Average number of cycles messages are stalled in this MB
system.ruby.l1_cntrl1.cache.demand_accesses            0                       # Number of cache demand accesses
system.ruby.l1_cntrl1.cache.demand_hits             0                       # Number of cache demand hits
system.ruby.l1_cntrl1.cache.demand_misses            0                       # Number of cache demand misses
system.ruby.l1_cntrl1.fully_busy_cycles            60                       # cycles for which number of transistions == max transitions
system.ruby.l1_cntrl1.mandatoryQueue.avg_buf_msgs     0.473579                       # Average number of messages in buffer
system.ruby.l1_cntrl1.mandatoryQueue.avg_stall_time  1206.506117                       # Average number of cycles messages are stalled in this MB
system.ruby.l1_cntrl1.net0From.avg_buf_msgs    33.396860                       # Average number of messages in buffer
system.ruby.l1_cntrl1.net0From.avg_stall_time 15624.762556                       # Average number of cycles messages are stalled in this MB
system.ruby.l1_cntrl1.net1From.avg_buf_msgs     0.000202                       # Average number of messages in buffer
system.ruby.l1_cntrl1.net1From.avg_stall_time 16496.283258                       # Average number of cycles messages are stalled in this MB
system.ruby.l1_cntrl1.net2From.avg_buf_msgs     0.000341                       # Average number of messages in buffer
system.ruby.l1_cntrl1.net2From.avg_stall_time  6551.460809                       # Average number of cycles messages are stalled in this MB
system.ruby.l1_cntrl1.reqTo.avg_buf_msgs     0.001165                       # Average number of messages in buffer
system.ruby.l1_cntrl1.reqTo.avg_stall_time   500.001448                       # Average number of cycles messages are stalled in this MB
system.ruby.l1_cntrl1.respFrom.avg_buf_msgs     0.000043                       # Average number of messages in buffer
system.ruby.l1_cntrl1.respFrom.avg_stall_time 14047.952285                       # Average number of cycles messages are stalled in this MB
system.ruby.l1_cntrl1.respTo.avg_buf_msgs     0.000059                       # Average number of messages in buffer
system.ruby.l1_cntrl1.respTo.avg_stall_time   507.711259                       # Average number of cycles messages are stalled in this MB
system.ruby.l1_cntrl2.cache.demand_accesses            0                       # Number of cache demand accesses
system.ruby.l1_cntrl2.cache.demand_hits             0                       # Number of cache demand hits
system.ruby.l1_cntrl2.cache.demand_misses            0                       # Number of cache demand misses
system.ruby.l1_cntrl2.fully_busy_cycles            60                       # cycles for which number of transistions == max transitions
system.ruby.l1_cntrl2.mandatoryQueue.avg_buf_msgs     0.456520                       # Average number of messages in buffer
system.ruby.l1_cntrl2.mandatoryQueue.avg_stall_time  1184.698882                       # Average number of cycles messages are stalled in this MB
system.ruby.l1_cntrl2.net0From.avg_buf_msgs    77.415421                       # Average number of messages in buffer
system.ruby.l1_cntrl2.net0From.avg_stall_time 15307.522090                       # Average number of cycles messages are stalled in this MB
system.ruby.l1_cntrl2.net1From.avg_buf_msgs     0.000192                       # Average number of messages in buffer
system.ruby.l1_cntrl2.net1From.avg_stall_time 16594.541978                       # Average number of cycles messages are stalled in this MB
system.ruby.l1_cntrl2.net2From.avg_buf_msgs     0.000335                       # Average number of messages in buffer
system.ruby.l1_cntrl2.net2From.avg_stall_time  6555.891055                       # Average number of cycles messages are stalled in this MB
system.ruby.l1_cntrl2.reqTo.avg_buf_msgs     0.001127                       # Average number of messages in buffer
system.ruby.l1_cntrl2.reqTo.avg_stall_time   500.001768                       # Average number of cycles messages are stalled in this MB
system.ruby.l1_cntrl2.respFrom.avg_buf_msgs     0.000034                       # Average number of messages in buffer
system.ruby.l1_cntrl2.respFrom.avg_stall_time 14031.574689                       # Average number of cycles messages are stalled in this MB
system.ruby.l1_cntrl2.respTo.avg_buf_msgs     0.000067                       # Average number of messages in buffer
system.ruby.l1_cntrl2.respTo.avg_stall_time   516.105748                       # Average number of cycles messages are stalled in this MB
system.ruby.l1_cntrl3.cache.demand_accesses            0                       # Number of cache demand accesses
system.ruby.l1_cntrl3.cache.demand_hits             0                       # Number of cache demand hits
system.ruby.l1_cntrl3.cache.demand_misses            0                       # Number of cache demand misses
system.ruby.l1_cntrl3.fully_busy_cycles            48                       # cycles for which number of transistions == max transitions
system.ruby.l1_cntrl3.mandatoryQueue.avg_buf_msgs     0.457346                       # Average number of messages in buffer
system.ruby.l1_cntrl3.mandatoryQueue.avg_stall_time  1186.947817                       # Average number of cycles messages are stalled in this MB
system.ruby.l1_cntrl3.net0From.avg_buf_msgs    39.700060                       # Average number of messages in buffer
system.ruby.l1_cntrl3.net0From.avg_stall_time 15465.217486                       # Average number of cycles messages are stalled in this MB
system.ruby.l1_cntrl3.net1From.avg_buf_msgs     0.000189                       # Average number of messages in buffer
system.ruby.l1_cntrl3.net1From.avg_stall_time 16435.341035                       # Average number of cycles messages are stalled in this MB
system.ruby.l1_cntrl3.net2From.avg_buf_msgs     0.000332                       # Average number of messages in buffer
system.ruby.l1_cntrl3.net2From.avg_stall_time  6541.917330                       # Average number of cycles messages are stalled in this MB
system.ruby.l1_cntrl3.reqTo.avg_buf_msgs     0.001126                       # Average number of messages in buffer
system.ruby.l1_cntrl3.reqTo.avg_stall_time   499.730573                       # Average number of cycles messages are stalled in this MB
system.ruby.l1_cntrl3.respFrom.avg_buf_msgs     0.000043                       # Average number of messages in buffer
system.ruby.l1_cntrl3.respFrom.avg_stall_time 14376.207573                       # Average number of cycles messages are stalled in this MB
system.ruby.l1_cntrl3.respTo.avg_buf_msgs     0.000055                       # Average number of messages in buffer
system.ruby.l1_cntrl3.respTo.avg_stall_time   519.748119                       # Average number of cycles messages are stalled in this MB
system.ruby.latency_hist_seqr::bucket_size            1                      
system.ruby.latency_hist_seqr::max_bucket            9                      
system.ruby.latency_hist_seqr::samples     2442118144                      
system.ruby.latency_hist_seqr            |  2442118144    100.00%    100.00% |           0      0.00%    100.00% |           0      0.00%    100.00% |           0      0.00%    100.00% |           0      0.00%    100.00% |           0      0.00%    100.00% |           0      0.00%    100.00% |           0      0.00%    100.00% |           0      0.00%    100.00% |           0      0.00%    100.00%
system.ruby.latency_hist_seqr::total       2442118144                      
system.ruby.miss_latency_hist_seqr::bucket_size            1                      
system.ruby.miss_latency_hist_seqr::max_bucket            9                      
system.ruby.miss_latency_hist_seqr::samples      3498108                      
system.ruby.miss_latency_hist_seqr       |     3498108    100.00%    100.00% |           0      0.00%    100.00% |           0      0.00%    100.00% |           0      0.00%    100.00% |           0      0.00%    100.00% |           0      0.00%    100.00% |           0      0.00%    100.00% |           0      0.00%    100.00% |           0      0.00%    100.00% |           0      0.00%    100.00%
system.ruby.miss_latency_hist_seqr::total      3498108                      
system.ruby.network.average_flit_latency    16.606550                      
system.ruby.network.average_flit_network_latency    12.417468                      
system.ruby.network.average_flit_queueing_latency     4.189082                      
system.ruby.network.average_flit_vnet_latency |   14.157542                       |   15.029436                       |    5.035280                       |   15.091083                       |    9.909110                      
system.ruby.network.average_flit_vqueue_latency |    6.112041                       |    6.000000                       |    6.000005                       |    1.233242                       |    1.003742                      
system.ruby.network.average_hops             1.000649                      
system.ruby.network.average_packet_latency    15.701027                      
system.ruby.network.average_packet_network_latency    12.212070                      
system.ruby.network.average_packet_queueing_latency     3.488958                      
system.ruby.network.average_packet_vnet_latency |   18.295068                       |   25.043586                       |    5.035280                       |   25.126260                       |    8.226883                      
system.ruby.network.average_packet_vqueue_latency |    6.083027                       |    6.000001                       |    6.000005                       |    1.233242                       |    1.006014                      
system.ruby.network.avg_link_utilization     0.070069                      
system.ruby.network.avg_vc_load          |    0.020750     29.61%     29.61% |    0.002355      3.36%     32.98% |    0.002322      3.31%     36.29% |    0.002321      3.31%     39.60% |    0.008993     12.83%     52.43% |    0.001020      1.46%     53.89% |    0.001000      1.43%     55.32% |    0.001000      1.43%     56.75% |    0.003083      4.40%     61.14% |    0.000347      0.49%     61.64% |    0.000344      0.49%     62.13% |    0.000344      0.49%     62.62% |    0.002244      3.20%     65.82% |    0.000409      0.58%     66.41% |    0.000272      0.39%     66.80% |    0.000263      0.38%     67.17% |    0.017004     24.27%     91.44% |    0.002161      3.08%     94.52% |    0.001919      2.74%     97.26% |    0.001919      2.74%    100.00%
system.ruby.network.avg_vc_load::total       0.070069                      
system.ruby.network.ext_in_link_utilization     31592822                      
system.ruby.network.ext_out_link_utilization     31592821                      
system.ruby.network.flit_network_latency |   177304208                       |    81347468                       |     9362156                       |    21516112                       |   102772902                      
system.ruby.network.flit_queueing_latency |    76545112                       |    32475259                       |    11155882                       |     1758295                       |    10410363                      
system.ruby.network.flits_injected       |    12523664     39.64%     39.64% |     5412543     17.13%     56.77% |     1859312      5.89%     62.66% |     1425750      4.51%     67.17% |    10371557     32.83%    100.00%
system.ruby.network.flits_injected::total     31592826                      
system.ruby.network.flits_received       |    12523658     39.64%     39.64% |     5412543     17.13%     56.77% |     1859312      5.89%     62.66% |     1425750      4.51%     67.17% |    10371557     32.83%    100.00%
system.ruby.network.flits_received::total     31592820                      
system.ruby.network.int_link_utilization     31613338                      
system.ruby.network.packet_network_latency |    62860939                       |    27110058                       |     9362156                       |     7164753                       |    51877054                      
system.ruby.network.packet_queueing_latency |    20900976                       |     6495091                       |    11155882                       |      351659                       |     6343723                      
system.ruby.network.packets_injected     |     3435952     26.49%     26.49% |     1082515      8.35%     34.84% |     1859312     14.34%     49.18% |      285150      2.20%     51.38% |     6305797     48.62%    100.00%
system.ruby.network.packets_injected::total     12968726                      
system.ruby.network.packets_received     |     3435950     26.49%     26.49% |     1082515      8.35%     34.84% |     1859312     14.34%     49.18% |      285150      2.20%     51.38% |     6305797     48.62%    100.00%
system.ruby.network.packets_received::total     12968724                      
system.ruby.network.routers0.buffer_reads     16193360                      
system.ruby.network.routers0.buffer_writes     16193360                      
system.ruby.network.routers0.crossbar_activity     16193360                      
system.ruby.network.routers0.sw_input_arbiter_activity     16232276                      
system.ruby.network.routers0.sw_output_arbiter_activity     16193360                      
system.ruby.network.routers1.buffer_reads     15899533                      
system.ruby.network.routers1.buffer_writes     15899533                      
system.ruby.network.routers1.crossbar_activity     15899533                      
system.ruby.network.routers1.sw_input_arbiter_activity     15922146                      
system.ruby.network.routers1.sw_output_arbiter_activity     15899533                      
system.ruby.network.routers2.buffer_reads     15550653                      
system.ruby.network.routers2.buffer_writes     15550653                      
system.ruby.network.routers2.crossbar_activity     15550653                      
system.ruby.network.routers2.sw_input_arbiter_activity     15576469                      
system.ruby.network.routers2.sw_output_arbiter_activity     15550653                      
system.ruby.network.routers3.buffer_reads     15562613                      
system.ruby.network.routers3.buffer_writes     15562613                      
system.ruby.network.routers3.crossbar_activity     15562613                      
system.ruby.network.routers3.sw_input_arbiter_activity     15584576                      
system.ruby.network.routers3.sw_output_arbiter_activity     15562613                      
system.ruby.outstanding_req_hist_seqr::bucket_size            1                      
system.ruby.outstanding_req_hist_seqr::max_bucket            9                      
system.ruby.outstanding_req_hist_seqr::samples   2442118147                      
system.ruby.outstanding_req_hist_seqr::mean     1.001941                      
system.ruby.outstanding_req_hist_seqr::gmean     1.001346                      
system.ruby.outstanding_req_hist_seqr::stdev     0.044014                      
system.ruby.outstanding_req_hist_seqr    |           0      0.00%      0.00% |  2437377968     99.81%     99.81% |     4740179      0.19%    100.00% |           0      0.00%    100.00% |           0      0.00%    100.00% |           0      0.00%    100.00% |           0      0.00%    100.00% |           0      0.00%    100.00% |           0      0.00%    100.00% |           0      0.00%    100.00%
system.ruby.outstanding_req_hist_seqr::total   2442118147                      
system.switch_cpus0.Branches                 47986450                       # Number of branches fetched
system.switch_cpus0.committedInsts          355297169                       # Number of instructions committed
system.switch_cpus0.committedOps            653592447                       # Number of ops (including micro ops) committed
system.switch_cpus0.dtb.rdAccesses           99664426                       # TLB accesses on read requests
system.switch_cpus0.dtb.rdMisses                60316                       # TLB misses on read requests
system.switch_cpus0.dtb.wrAccesses           14151880                       # TLB accesses on write requests
system.switch_cpus0.dtb.wrMisses                19384                       # TLB misses on write requests
system.switch_cpus0.idle_fraction            0.000586                       # Percentage of idle cycles
system.switch_cpus0.itb.rdAccesses                  0                       # TLB accesses on read requests
system.switch_cpus0.itb.rdMisses                    0                       # TLB misses on read requests
system.switch_cpus0.itb.wrAccesses          510069901                       # TLB accesses on write requests
system.switch_cpus0.itb.wrMisses                 4521                       # TLB misses on write requests
system.switch_cpus0.kern.inst.arm                   0                       # number of arm instructions executed
system.switch_cpus0.kern.inst.quiesce               0                       # number of quiesce instructions executed
system.switch_cpus0.not_idle_fraction        0.999414                       # Percentage of non-idle cycles
system.switch_cpus0.numCycles              1352940950                       # number of cpu cycles simulated
system.switch_cpus0.numWorkItemsCompleted            0                       # number of work items this cpu completed
system.switch_cpus0.numWorkItemsStarted             0                       # number of work items this cpu started
system.switch_cpus0.num_busy_cycles      1352147470.140172                       # Number of busy cycles
system.switch_cpus0.num_cc_register_reads    267060772                       # number of times the CC registers were read
system.switch_cpus0.num_cc_register_writes    151662910                       # number of times the CC registers were written
system.switch_cpus0.num_conditional_control_insts     44400606                       # number of instructions that are conditional controls
system.switch_cpus0.num_fp_alu_accesses     294517578                       # Number of float alu accesses
system.switch_cpus0.num_fp_insts            294517578                       # number of float instructions
system.switch_cpus0.num_fp_register_reads    354308118                       # number of times the floating registers were read
system.switch_cpus0.num_fp_register_writes    279058924                       # number of times the floating registers were written
system.switch_cpus0.num_func_calls            1435196                       # number of times a function call or return occured
system.switch_cpus0.num_idle_cycles      793479.859828                       # Number of idle cycles
system.switch_cpus0.num_int_alu_accesses    432633267                       # Number of integer alu accesses
system.switch_cpus0.num_int_insts           432633267                       # number of integer instructions
system.switch_cpus0.num_int_register_reads    838715348                       # number of times the integer registers were read
system.switch_cpus0.num_int_register_writes    300762493                       # number of times the integer registers were written
system.switch_cpus0.num_load_insts           98416861                       # Number of load instructions
system.switch_cpus0.num_mem_refs            112532123                       # number of memory refs
system.switch_cpus0.num_store_insts          14115262                       # Number of store instructions
system.switch_cpus0.num_vec_alu_accesses            0                       # Number of vector alu accesses
system.switch_cpus0.num_vec_insts                   0                       # number of vector instructions
system.switch_cpus0.num_vec_register_reads            0                       # number of times the vector registers were read
system.switch_cpus0.num_vec_register_writes            0                       # number of times the vector registers were written
[...]
system.mem_ctrls1.llc.tags.tagsinuse     43502.128089                       # Cycle average of tags in use
system.mem_ctrls1.llc.tags.total_refs               0                       # Total number of references to valid blocks.
system.mem_ctrls1.llc.tags.sampled_refs             0                       # Sample count of references to valid blocks.
system.mem_ctrls1.llc.tags.avg_refs               nan                       # Average number of references to valid blocks.
system.mem_ctrls1.llc.tags.warmup_cycle  100492610386500                       # Cycle when the warmup percentage was hit.
system.mem_ctrls1.llc.tags.occ_blocks::.ruby.dir_cntrl1 43502.128089                       # Average occupied blocks per requestor
system.mem_ctrls1.llc.tags.occ_percent::.ruby.dir_cntrl1     0.165947                       # Average percentage of cache occupancy
system.mem_ctrls1.llc.tags.occ_percent::total     0.165947                       # Average percentage of cache occupancy
system.mem_ctrls1.llc.tags.occ_task_id_blocks::1024        48812                       # Occupied blocks per task id
system.mem_ctrls1.llc.tags.age_task_id_blocks_1024::0            3                       # Occupied blocks per task id
system.mem_ctrls1.llc.tags.age_task_id_blocks_1024::1           69                       # Occupied blocks per task id
system.mem_ctrls1.llc.tags.age_task_id_blocks_1024::2           72                       # Occupied blocks per task id
system.mem_ctrls1.llc.tags.age_task_id_blocks_1024::4        48668                       # Occupied blocks per task id
system.mem_ctrls1.llc.tags.occ_task_id_percent::1024     0.186203                       # Percentage of cache occupancy per task id
system.mem_ctrls1.llc.tags.tag_accesses      18095132                       # Number of tag accesses
system.mem_ctrls1.llc.tags.data_accesses      1127895                       # Number of data accesses
system.mem_ctrls1.llc.tags.power_state.pwrStateResidencyTicks::UNDEFINED 101169080807001                       # Cumulative time (in ticks) in various power states
system.mem_ctrls1.rank1.actEnergy            45831660                       # Energy for activate commands per rank (pJ)
system.mem_ctrls1.rank1.preEnergy            24356310                       # Energy for precharge commands per rank (pJ)
system.mem_ctrls1.rank1.readEnergy          172352460                       # Energy for read commands per rank (pJ)
system.mem_ctrls1.rank1.writeEnergy                 0                       # Energy for write commands per rank (pJ)
system.mem_ctrls1.rank1.refreshEnergy    53399923200.000008                       # Energy for refresh commands per rank (pJ)
system.mem_ctrls1.rank1.actBackEnergy     15669252120                       # Energy for active background per rank (pJ)
system.mem_ctrls1.rank1.preBackEnergy    246569021760                       # Energy for precharge background per rank (pJ)
system.mem_ctrls1.rank1.actPowerDownEnergy            0                       # Energy for active power-down per rank (pJ)
system.mem_ctrls1.rank1.prePowerDownEnergy            0                       # Energy for precharge power-down per rank (pJ)
system.mem_ctrls1.rank1.selfRefreshEnergy            0                       # Energy for self refresh per rank (pJ)
system.mem_ctrls1.rank1.totalEnergy      315880737510                       # Total energy per rank (pJ)
system.mem_ctrls1.rank1.averagePower       466.954129                       # Core power per rank (mW)
system.mem_ctrls1.rank1.totalIdleTime               0                       # Total Idle time Per DRAM Rank
system.mem_ctrls1.rank1.memoryStateTime::IDLE 640877870251                       # Time in different power states
system.mem_ctrls1.rank1.memoryStateTime::REF  22588800000                       # Time in different power states
system.mem_ctrls1.rank1.memoryStateTime::SREF            0                       # Time in different power states
system.mem_ctrls1.rank1.memoryStateTime::PRE_PDN            0                       # Time in different power states
system.mem_ctrls1.rank1.memoryStateTime::ACT  13003924250                       # Time in different power states
system.mem_ctrls1.rank1.memoryStateTime::ACT_PDN            0                       # Time in different power states
system.mem_ctrls1.rank0.actEnergy            48987540                       # Energy for activate commands per rank (pJ)
system.mem_ctrls1.rank0.preEnergy            26037495                       # Energy for precharge commands per rank (pJ)
system.mem_ctrls1.rank0.readEnergy          176165220                       # Energy for read commands per rank (pJ)
system.mem_ctrls1.rank0.writeEnergy                 0                       # Energy for write commands per rank (pJ)
system.mem_ctrls1.rank0.refreshEnergy    53399923200.000008                       # Energy for refresh commands per rank (pJ)
system.mem_ctrls1.rank0.actBackEnergy     15659720580                       # Energy for active background per rank (pJ)
system.mem_ctrls1.rank0.preBackEnergy    246577528320                       # Energy for precharge background per rank (pJ)
system.mem_ctrls1.rank0.actPowerDownEnergy            0                       # Energy for active power-down per rank (pJ)
system.mem_ctrls1.rank0.prePowerDownEnergy            0                       # Energy for precharge power-down per rank (pJ)
system.mem_ctrls1.rank0.selfRefreshEnergy            0                       # Energy for self refresh per rank (pJ)
system.mem_ctrls1.rank0.totalEnergy      315888362355                       # Total energy per rank (pJ)
system.mem_ctrls1.rank0.averagePower       466.965401                       # Core power per rank (mW)
system.mem_ctrls1.rank0.totalIdleTime               0                       # Total Idle time Per DRAM Rank
system.mem_ctrls1.rank0.memoryStateTime::IDLE 640899839502                       # Time in different power states
system.mem_ctrls1.rank0.memoryStateTime::REF  22588800000                       # Time in different power states
system.mem_ctrls1.rank0.memoryStateTime::SREF            0                       # Time in different power states
system.mem_ctrls1.rank0.memoryStateTime::PRE_PDN            0                       # Time in different power states
system.mem_ctrls1.rank0.memoryStateTime::ACT  12981954999                       # Time in different power states
system.mem_ctrls1.rank0.memoryStateTime::ACT_PDN            0                       # Time in different power states
system.mem_ctrls1.power_state.pwrStateResidencyTicks::UNDEFINED 101169080807001                       # Cumulative time (in ticks) in various power states
system.cpu_voltage_domain.voltage                   1                       # Voltage in Volts
system.iobus.trans_dist::ReadReq                  240                       # Transaction distribution
system.iobus.trans_dist::ReadResp                 240                       # Transaction distribution
system.iobus.trans_dist::WriteReq                3107                       # Transaction distribution
system.iobus.trans_dist::WriteResp               3107                       # Transaction distribution
system.iobus.pkt_count_system.pc.south_bridge.io_apic.int_master::system.ruby.l1_cntrl1.sequencer.pio-slave-port          118                       # Packet count per connected master and slave (bytes)
system.iobus.pkt_count_system.pc.south_bridge.io_apic.int_master::total          118                       # Packet count per connected master and slave (bytes)
system.iobus.pkt_count_system.ruby.l1_cntrl0.sequencer.mem-master-port::system.ruby.l1_cntrl0.sequencer.pio-slave-port         1604                       # Packet count per connected master and slave (bytes)
system.iobus.pkt_count_system.ruby.l1_cntrl0.sequencer.mem-master-port::system.ruby.l1_cntrl1.sequencer.pio-slave-port           30                       # Packet count per connected master and slave (bytes)
system.iobus.pkt_count_system.ruby.l1_cntrl0.sequencer.mem-master-port::system.ruby.l1_cntrl2.sequencer.pio-slave-port           22                       # Packet count per connected master and slave (bytes)
system.iobus.pkt_count_system.ruby.l1_cntrl0.sequencer.mem-master-port::system.ruby.l1_cntrl3.sequencer.pio-slave-port           26                       # Packet count per connected master and slave (bytes)
system.iobus.pkt_count_system.ruby.l1_cntrl0.sequencer.mem-master-port::total         1682                       # Packet count per connected master and slave (bytes)
system.iobus.pkt_count_system.ruby.l1_cntrl1.sequencer.mem-master-port::system.pc.south_bridge.ide.pio           36                       # Packet count per connected master and slave (bytes)
system.iobus.pkt_count_system.ruby.l1_cntrl1.sequencer.mem-master-port::system.pc.com_1.pio          456                       # Packet count per connected master and slave (bytes)
system.iobus.pkt_count_system.ruby.l1_cntrl1.sequencer.mem-master-port::system.ruby.l1_cntrl0.sequencer.pio-slave-port            2                       # Packet count per connected master and slave (bytes)
system.iobus.pkt_count_system.ruby.l1_cntrl1.sequencer.mem-master-port::system.ruby.l1_cntrl1.sequencer.pio-slave-port         1440                       # Packet count per connected master and slave (bytes)
system.iobus.pkt_count_system.ruby.l1_cntrl1.sequencer.mem-master-port::system.ruby.l1_cntrl2.sequencer.pio-slave-port            4                       # Packet count per connected master and slave (bytes)
system.iobus.pkt_count_system.ruby.l1_cntrl1.sequencer.mem-master-port::system.ruby.l1_cntrl3.sequencer.pio-slave-port            6                       # Packet count per connected master and slave (bytes)
system.iobus.pkt_count_system.ruby.l1_cntrl1.sequencer.mem-master-port::total         1944                       # Packet count per connected master and slave (bytes)
system.iobus.pkt_count_system.ruby.l1_cntrl2.sequencer.mem-master-port::system.ruby.l1_cntrl0.sequencer.pio-slave-port            4                       # Packet count per connected master and slave (bytes)
system.iobus.pkt_count_system.ruby.l1_cntrl2.sequencer.mem-master-port::system.ruby.l1_cntrl1.sequencer.pio-slave-port            4                       # Packet count per connected master and slave (bytes)
system.iobus.pkt_count_system.ruby.l1_cntrl2.sequencer.mem-master-port::system.ruby.l1_cntrl2.sequencer.pio-slave-port         1394                       # Packet count per connected master and slave (bytes)
system.iobus.pkt_count_system.ruby.l1_cntrl2.sequencer.mem-master-port::system.ruby.l1_cntrl3.sequencer.pio-slave-port            4                       # Packet count per connected master and slave (bytes)
system.iobus.pkt_count_system.ruby.l1_cntrl2.sequencer.mem-master-port::total         1406                       # Packet count per connected master and slave (bytes)
system.iobus.pkt_count_system.ruby.l1_cntrl3.sequencer.mem-master-port::system.pc.south_bridge.ide.pio          102                       # Packet count per connected master and slave (bytes)
system.iobus.pkt_count_system.ruby.l1_cntrl3.sequencer.mem-master-port::system.ruby.l1_cntrl0.sequencer.pio-slave-port            6                       # Packet count per connected master and slave (bytes)
system.iobus.pkt_count_system.ruby.l1_cntrl3.sequencer.mem-master-port::system.ruby.l1_cntrl1.sequencer.pio-slave-port            6                       # Packet count per connected master and slave (bytes)
system.iobus.pkt_count_system.ruby.l1_cntrl3.sequencer.mem-master-port::system.ruby.l1_cntrl2.sequencer.pio-slave-port            4                       # Packet count per connected master and slave (bytes)
system.iobus.pkt_count_system.ruby.l1_cntrl3.sequencer.mem-master-port::system.ruby.l1_cntrl3.sequencer.pio-slave-port         1426                       # Packet count per connected master and slave (bytes)
system.iobus.pkt_count_system.ruby.l1_cntrl3.sequencer.mem-master-port::total         1544                       # Packet count per connected master and slave (bytes)
system.iobus.pkt_count::total                    6694                       # Packet count per connected master and slave (bytes)
system.iobus.pkt_size_system.pc.south_bridge.io_apic.int_master::system.ruby.l1_cntrl1.sequencer.pio-slave-port          236                       # Cumulative packet size per connected master and slave (bytes)
system.iobus.pkt_size_system.pc.south_bridge.io_apic.int_master::total          236                       # Cumulative packet size per connected master and slave (bytes)
system.iobus.pkt_size_system.ruby.l1_cntrl0.sequencer.mem-master-port::system.ruby.l1_cntrl0.sequencer.pio-slave-port         3208                       # Cumulative packet size per connected master and slave (bytes)
system.iobus.pkt_size_system.ruby.l1_cntrl0.sequencer.mem-master-port::system.ruby.l1_cntrl1.sequencer.pio-slave-port           60                       # Cumulative packet size per connected master and slave (bytes)
system.iobus.pkt_size_system.ruby.l1_cntrl0.sequencer.mem-master-port::system.ruby.l1_cntrl2.sequencer.pio-slave-port           44                       # Cumulative packet size per connected master and slave (bytes)
system.iobus.pkt_size_system.ruby.l1_cntrl0.sequencer.mem-master-port::system.ruby.l1_cntrl3.sequencer.pio-slave-port           52                       # Cumulative packet size per connected master and slave (bytes)
system.iobus.pkt_size_system.ruby.l1_cntrl0.sequencer.mem-master-port::total         3364                       # Cumulative packet size per connected master and slave (bytes)
system.iobus.pkt_size_system.ruby.l1_cntrl1.sequencer.mem-master-port::system.pc.south_bridge.ide.pio           18                       # Cumulative packet size per connected master and slave (bytes)
system.iobus.pkt_size_system.ruby.l1_cntrl1.sequencer.mem-master-port::system.pc.com_1.pio          228                       # Cumulative packet size per connected master and slave (bytes)
system.iobus.pkt_size_system.ruby.l1_cntrl1.sequencer.mem-master-port::system.ruby.l1_cntrl0.sequencer.pio-slave-port            4                       # Cumulative packet size per connected master and slave (bytes)
system.iobus.pkt_size_system.ruby.l1_cntrl1.sequencer.mem-master-port::system.ruby.l1_cntrl1.sequencer.pio-slave-port         2880                       # Cumulative packet size per connected master and slave (bytes)
system.iobus.pkt_size_system.ruby.l1_cntrl1.sequencer.mem-master-port::system.ruby.l1_cntrl2.sequencer.pio-slave-port            8                       # Cumulative packet size per connected master and slave (bytes)
system.iobus.pkt_size_system.ruby.l1_cntrl1.sequencer.mem-master-port::system.ruby.l1_cntrl3.sequencer.pio-slave-port           12                       # Cumulative packet size per connected master and slave (bytes)
system.iobus.pkt_size_system.ruby.l1_cntrl1.sequencer.mem-master-port::total         3150                       # Cumulative packet size per connected master and slave (bytes)
system.iobus.pkt_size_system.ruby.l1_cntrl2.sequencer.mem-master-port::system.ruby.l1_cntrl0.sequencer.pio-slave-port            8                       # Cumulative packet size per connected master and slave (bytes)
system.iobus.pkt_size_system.ruby.l1_cntrl2.sequencer.mem-master-port::system.ruby.l1_cntrl1.sequencer.pio-slave-port            8                       # Cumulative packet size per connected master and slave (bytes)
system.iobus.pkt_size_system.ruby.l1_cntrl2.sequencer.mem-master-port::system.ruby.l1_cntrl2.sequencer.pio-slave-port         2788                       # Cumulative packet size per connected master and slave (bytes)
system.iobus.pkt_size_system.ruby.l1_cntrl2.sequencer.mem-master-port::system.ruby.l1_cntrl3.sequencer.pio-slave-port            8                       # Cumulative packet size per connected master and slave (bytes)
system.iobus.pkt_size_system.ruby.l1_cntrl2.sequencer.mem-master-port::total         2812                       # Cumulative packet size per connected master and slave (bytes)
system.iobus.pkt_size_system.ruby.l1_cntrl3.sequencer.mem-master-port::system.pc.south_bridge.ide.pio           60                       # Cumulative packet size per connected master and slave (bytes)
system.iobus.pkt_size_system.ruby.l1_cntrl3.sequencer.mem-master-port::system.ruby.l1_cntrl0.sequencer.pio-slave-port           12                       # Cumulative packet size per connected master and slave (bytes)
system.iobus.pkt_size_system.ruby.l1_cntrl3.sequencer.mem-master-port::system.ruby.l1_cntrl1.sequencer.pio-slave-port           12                       # Cumulative packet size per connected master and slave (bytes)
system.iobus.pkt_size_system.ruby.l1_cntrl3.sequencer.mem-master-port::system.ruby.l1_cntrl2.sequencer.pio-slave-port            8                       # Cumulative packet size per connected master and slave (bytes)
system.iobus.pkt_size_system.ruby.l1_cntrl3.sequencer.mem-master-port::system.ruby.l1_cntrl3.sequencer.pio-slave-port         2852                       # Cumulative packet size per connected master and slave (bytes)
system.iobus.pkt_size_system.ruby.l1_cntrl3.sequencer.mem-master-port::total         2944                       # Cumulative packet size per connected master and slave (bytes)
system.iobus.pkt_size::total                    12506                       # Cumulative packet size per connected master and slave (bytes)
system.iobus.reqLayer2.occupancy               115000                       # Layer occupancy (ticks)
system.iobus.reqLayer2.utilization                0.0                       # Layer utilization (%)
system.iobus.power_state.pwrStateResidencyTicks::UNDEFINED 101169080807001                       # Cumulative time (in ticks) in various power states
system.iobus.reqLayer19.occupancy             1763835                       # Layer occupancy (ticks)
system.iobus.reqLayer19.utilization               0.0                       # Layer utilization (%)
system.iobus.reqLayer17.occupancy             1929301                       # Layer occupancy (ticks)
system.iobus.reqLayer17.utilization               0.0                       # Layer utilization (%)
system.iobus.reqLayer12.occupancy              292500                       # Layer occupancy (ticks)
system.iobus.reqLayer12.utilization               0.0                       # Layer utilization (%)
system.iobus.reqLayer18.occupancy             1954800                       # Layer occupancy (ticks)
system.iobus.reqLayer18.utilization               0.0                       # Layer utilization (%)
system.iobus.respLayer9.occupancy             1146000                       # Layer occupancy (ticks)
system.iobus.respLayer9.utilization               0.0                       # Layer utilization (%)
system.iobus.respLayer5.occupancy             1512500                       # Layer occupancy (ticks)
system.iobus.respLayer5.utilization               0.0                       # Layer utilization (%)
system.iobus.respLayer7.occupancy             1052500                       # Layer occupancy (ticks)
system.iobus.respLayer7.utilization               0.0                       # Layer utilization (%)
system.iobus.respLayer0.occupancy               89497                       # Layer occupancy (ticks)
system.iobus.respLayer0.utilization               0.0                       # Layer utilization (%)
system.iobus.respLayer3.occupancy             1281000                       # Layer occupancy (ticks)
system.iobus.respLayer3.utilization               0.0                       # Layer utilization (%)
system.iobus.reqLayer20.occupancy             1796829                       # Layer occupancy (ticks)
system.iobus.reqLayer20.utilization               0.0                       # Layer utilization (%)

---------- End Simulation Statistics   ----------
