
---------- Begin Simulation Statistics ----------
final_tick                               102871105648001                       # Number of ticks from beginning of simulation (restored from checkpoints and never reset)
host_inst_rate                                 730562                       # Simulator instruction rate (inst/s)
host_mem_usage                                1652680                       # Number of bytes of host memory used
host_op_rate                                   860669                       # Simulator op (including micro ops) rate (op/s)
host_seconds                                  8589.82                       # Real time elapsed on the host
host_tick_rate                              114942828                       # Simulator tick rate (ticks/s)
sim_freq                                 1000000000000                       # Frequency of simulated ticks
sim_insts                                  6275393253                       # Number of instructions simulated
sim_ops                                    7392990910                       # Number of ops (including micro ops) simulated
sim_seconds                                  0.987338                       # Number of seconds simulated
sim_ticks                                987337691001                       # Number of ticks simulated
system.cpu0.committedInsts                          0                       # Number of instructions committed
system.cpu0.dtb.rdAccesses                          0                       # TLB accesses on read requests
system.cpu0.dtb.rdMisses                            0                       # TLB misses on read requests
system.cpu0.dtb.wrAccesses                          0                       # TLB accesses on write requests
system.cpu0.dtb.wrMisses                            0                       # TLB misses on write requests
system.cpu0.itb.rdAccesses                          0                       # TLB accesses on read requests
system.cpu0.itb.rdMisses                            0                       # TLB misses on read requests
system.cpu0.itb.wrAccesses                          0                       # TLB accesses on write requests
system.cpu0.itb.wrMisses                            0                       # TLB misses on write requests
system.cpu0.kern.inst.arm                           0                       # number of arm instructions executed
system.cpu0.kern.inst.quiesce                       0                       # number of quiesce instructions executed
system.cpu0.numCoalescedMMIO                        0                       # number of coalesced memory mapped IO requests
system.cpu0.numCycles                               0                       # number of cpu cycles simulated
system.cpu0.numExitSignal                           0                       # exits due to signal delivery
system.cpu0.numHalt                                 0                       # number of VM exits due to wait for interrupt instructions
system.cpu0.numHypercalls                           0                       # number of hypercalls
system.cpu0.numIO                                   0                       # number of VM exits due to legacy IO
system.cpu0.numInterrupts                           0                       # number of interrupts delivered
system.cpu0.numMMIO                                 0                       # number of VM exits due to memory mapped IO
system.cpu0.numVMExits                              0                       # total number of KVM exits
system.cpu0.numVMHalfEntries                        0                       # number of KVM entries to finalize pending operations
system.cpu0.numWorkItemsCompleted                   0                       # number of work items this cpu completed
system.cpu0.numWorkItemsStarted                     0                       # number of work items this cpu started
system.cpu1.committedInsts                          0                       # Number of instructions committed
system.cpu1.dtb.rdAccesses                          0                       # TLB accesses on read requests
system.cpu1.dtb.rdMisses                            0                       # TLB misses on read requests
system.cpu1.dtb.wrAccesses                          0                       # TLB accesses on write requests
system.cpu1.dtb.wrMisses                            0                       # TLB misses on write requests
system.cpu1.itb.rdAccesses                          0                       # TLB accesses on read requests
system.cpu1.itb.rdMisses                            0                       # TLB misses on read requests
system.cpu1.itb.wrAccesses                          0                       # TLB accesses on write requests
system.cpu1.itb.wrMisses                            0                       # TLB misses on write requests
system.cpu1.kern.inst.arm                           0                       # number of arm instructions executed
system.cpu1.kern.inst.quiesce                       0                       # number of quiesce instructions executed
system.cpu1.numCoalescedMMIO                        0                       # number of coalesced memory mapped IO requests
system.cpu1.numCycles                               0                       # number of cpu cycles simulated
system.cpu1.numExitSignal                           0                       # exits due to signal delivery
system.cpu1.numHalt                                 0                       # number of VM exits due to wait for interrupt instructions
system.cpu1.numHypercalls                           0                       # number of hypercalls
system.cpu1.numIO                                   0                       # number of VM exits due to legacy IO
system.cpu1.numInterrupts                           0                       # number of interrupts delivered
system.cpu1.numMMIO                                 0                       # number of VM exits due to memory mapped IO
system.cpu1.numVMExits                              0                       # total number of KVM exits
system.cpu1.numVMHalfEntries                        0                       # number of KVM entries to finalize pending operations
system.cpu1.numWorkItemsCompleted                   0                       # number of work items this cpu completed
system.cpu1.numWorkItemsStarted                     0                       # number of work items this cpu started
system.cpu2.committedInsts                          0                       # Number of instructions committed
system.cpu2.dtb.rdAccesses                          0                       # TLB accesses on read requests
system.cpu2.dtb.rdMisses                            0                       # TLB misses on read requests
system.cpu2.dtb.wrAccesses                          0                       # TLB accesses on write requests
system.cpu2.dtb.wrMisses                            0                       # TLB misses on write requests
system.cpu2.itb.rdAccesses                          0                       # TLB accesses on read requests
system.cpu2.itb.rdMisses                            0                       # TLB misses on read requests
system.cpu2.itb.wrAccesses                          0                       # TLB accesses on write requests
system.cpu2.itb.wrMisses                            0                       # TLB misses on write requests
system.cpu2.kern.inst.arm                           0                       # number of arm instructions executed
system.cpu2.kern.inst.quiesce                       0                       # number of quiesce instructions executed
system.cpu2.numCoalescedMMIO                        0                       # number of coalesced memory mapped IO requests
system.cpu2.numCycles                               0                       # number of cpu cycles simulated
system.cpu2.numExitSignal                           0                       # exits due to signal delivery
system.cpu2.numHalt                                 0                       # number of VM exits due to wait for interrupt instructions
system.cpu2.numHypercalls                           0                       # number of hypercalls
system.cpu2.numIO                                   0                       # number of VM exits due to legacy IO
system.cpu2.numInterrupts                           0                       # number of interrupts delivered
system.cpu2.numMMIO                                 0                       # number of VM exits due to memory mapped IO
system.cpu2.numVMExits                              0                       # total number of KVM exits
system.cpu2.numVMHalfEntries                        0                       # number of KVM entries to finalize pending operations
system.cpu2.numWorkItemsCompleted                   0                       # number of work items this cpu completed
system.cpu2.numWorkItemsStarted                     0                       # number of work items this cpu started
system.cpu3.committedInsts                          0                       # Number of instructions committed
system.cpu3.dtb.rdAccesses                          0                       # TLB accesses on read requests
system.cpu3.dtb.rdMisses                            0                       # TLB misses on read requests
system.cpu3.dtb.wrAccesses                          0                       # TLB accesses on write requests
system.cpu3.dtb.wrMisses                            0                       # TLB misses on write requests
system.cpu3.itb.rdAccesses                          0                       # TLB accesses on read requests
system.cpu3.itb.rdMisses                            0                       # TLB misses on read requests
system.cpu3.itb.wrAccesses                          0                       # TLB accesses on write requests
system.cpu3.itb.wrMisses                            0                       # TLB misses on write requests
system.cpu3.kern.inst.arm                           0                       # number of arm instructions executed
system.cpu3.kern.inst.quiesce                       0                       # number of quiesce instructions executed
system.cpu3.numCoalescedMMIO                        0                       # number of coalesced memory mapped IO requests
system.cpu3.numCycles                               0                       # number of cpu cycles simulated
system.cpu3.numExitSignal                           0                       # exits due to signal delivery
system.cpu3.numHalt                                 0                       # number of VM exits due to wait for interrupt instructions
system.cpu3.numHypercalls                           0                       # number of hypercalls
system.cpu3.numIO                                   0                       # number of VM exits due to legacy IO
system.cpu3.numInterrupts                           0                       # number of interrupts delivered
system.cpu3.numMMIO                                 0                       # number of VM exits due to memory mapped IO
system.cpu3.numVMExits                              0                       # total number of KVM exits
system.cpu3.numVMHalfEntries                        0                       # number of KVM entries to finalize pending operations
system.cpu3.numWorkItemsCompleted                   0                       # number of work items this cpu completed
system.cpu3.numWorkItemsStarted                     0                       # number of work items this cpu started
system.pc.south_bridge.ide.disks.dma_read_bytes       245760                       # Number of bytes transfered via DMA reads (not PRD).
system.pc.south_bridge.ide.disks.dma_read_full_pages           60                       # Number of full page size DMA reads (not PRD).
system.pc.south_bridge.ide.disks.dma_read_txs           60                       # Number of DMA read transactions (not PRD).
system.pc.south_bridge.ide.disks.dma_write_bytes            0                       # Number of bytes transfered via DMA writes.
system.pc.south_bridge.ide.disks.dma_write_full_pages            0                       # Number of full page size DMA writes.
system.pc.south_bridge.ide.disks.dma_write_txs            0                       # Number of DMA write transactions.
system.ruby.DMA_Controller.I.allocI_load |        3849    100.00%    100.00% |           0      0.00%    100.00%
system.ruby.DMA_Controller.I.allocI_load::total         3849                      
system.ruby.DMA_Controller.I.deallocfwdfrom_in |        2828    100.00%    100.00% |           0      0.00%    100.00%
system.ruby.DMA_Controller.I.deallocfwdfrom_in::total         2828                      
system.ruby.DMA_Controller.S.SloadSEvent |          51    100.00%    100.00% |           0      0.00%    100.00%
system.ruby.DMA_Controller.S.SloadSEvent::total           51                      
system.ruby.DMA_Controller.S.allocTBE    |        2831    100.00%    100.00% |           0      0.00%    100.00%
system.ruby.DMA_Controller.S.allocTBE::total         2831                      
system.ruby.DMA_Controller.S.externalloadSrespfrom_in |        3849    100.00%    100.00% |           0      0.00%    100.00%
system.ruby.DMA_Controller.S.externalloadSrespfrom_in::total         3849                      
system.ruby.DMA_Controller.S_evict.Stallmandatory_in |        8496    100.00%    100.00% |           0      0.00%    100.00%
system.ruby.DMA_Controller.S_evict.Stallmandatory_in::total         8496                      
system.ruby.DMA_Controller.SloadSEvent   |          51    100.00%    100.00% |           0      0.00%    100.00%
system.ruby.DMA_Controller.SloadSEvent::total           51                      
system.ruby.DMA_Controller.Stallmandatory_in |        8496    100.00%    100.00% |           0      0.00%    100.00%
system.ruby.DMA_Controller.Stallmandatory_in::total         8496                      
system.ruby.DMA_Controller.allocI_load   |        3849    100.00%    100.00% |           0      0.00%    100.00%
system.ruby.DMA_Controller.allocI_load::total         3849                      
system.ruby.DMA_Controller.allocTBE      |        2831    100.00%    100.00% |           0      0.00%    100.00%
system.ruby.DMA_Controller.allocTBE::total         2831                      
system.ruby.DMA_Controller.deallocfwdfrom_in |        2828    100.00%    100.00% |           0      0.00%    100.00%
system.ruby.DMA_Controller.deallocfwdfrom_in::total         2828                      
system.ruby.DMA_Controller.externalloadSrespfrom_in |        3849    100.00%    100.00% |           0      0.00%    100.00%
system.ruby.DMA_Controller.externalloadSrespfrom_in::total         3849                      
system.ruby.Directory_Controller.I.allocTBE |     5505773     29.07%     29.07% |     4047662     21.37%     50.44% |     5330760     28.15%     78.59% |     4054624     21.41%    100.00%
system.ruby.Directory_Controller.I.allocTBE::total     18938819                      
system.ruby.Directory_Controller.I.deallocTBE |     5504848     29.07%     29.07% |     4046772     21.37%     50.44% |     5329861     28.15%     78.59% |     4053693     21.41%    100.00%
system.ruby.Directory_Controller.I.deallocTBE::total     18935174                      
system.ruby.Directory_Controller.I_GetML1C1C1_0.Stallreqto_in |          17     53.12%     53.12% |          13     40.62%     93.75% |           2      6.25%    100.00% |           0      0.00%    100.00%
system.ruby.Directory_Controller.I_GetML1C1C1_0.Stallreqto_in::total           32                      
system.ruby.Directory_Controller.I_GetSL1C1C1_0.Stallreqto_in |        2540     32.56%     32.56% |         899     11.53%     44.09% |        2490     31.92%     76.01% |        1871     23.99%    100.00%
system.ruby.Directory_Controller.I_GetSL1C1C1_0.Stallreqto_in::total         7800                      
system.ruby.Directory_Controller.M.allocTBE |      277012     12.48%     12.48% |      206011      9.28%     21.76% |      649430     29.26%     51.01% |     1087433     48.99%    100.00%
system.ruby.Directory_Controller.M.allocTBE::total      2219886                      
system.ruby.Directory_Controller.M.deallocTBE |      277137     12.48%     12.48% |      206136      9.28%     21.77% |      649563     29.25%     51.02% |     1087557     48.98%    100.00%
system.ruby.Directory_Controller.M.deallocTBE::total      2220393                      
system.ruby.Directory_Controller.M_GetM.Progress |       29690      9.53%      9.53% |        7915      2.54%     12.07% |      223505     71.71%     83.78% |       50565     16.22%    100.00%
system.ruby.Directory_Controller.M_GetM.Progress::total       311675                      
system.ruby.Directory_Controller.M_GetM.Stallreqto_in |        2586      0.87%      0.87% |           7      0.00%      0.88% |      293332     99.10%     99.97% |          78      0.03%    100.00%
system.ruby.Directory_Controller.M_GetM.Stallreqto_in::total       296003                      
system.ruby.Directory_Controller.M_GetS.Progress |       95384      7.24%      7.24% |       54212      4.11%     11.35% |      278077     21.10%     32.45% |      890418     67.55%    100.00%
system.ruby.Directory_Controller.M_GetS.Progress::total      1318091                      
system.ruby.Directory_Controller.M_GetS.Stallreqto_in |       80529     19.99%     19.99% |         543      0.13%     20.12% |      306448     76.05%     96.18% |       15410      3.82%    100.00%
system.ruby.Directory_Controller.M_GetS.Stallreqto_in::total       402930                      
system.ruby.Directory_Controller.M_GetS_WBL1C1C1_0.Stallreqto_in |      109672      7.27%      7.27% |       61458      4.07%     11.34% |      406374     26.92%     38.26% |      931911     61.74%    100.00%
system.ruby.Directory_Controller.M_GetS_WBL1C1C1_0.Stallreqto_in::total      1509415                      
system.ruby.Directory_Controller.M_PutML1C1C1_0.Stallreqto_in |           0      0.00%      0.00% |           0      0.00%      0.00% |           0      0.00%      0.00% |           1    100.00%    100.00%
system.ruby.Directory_Controller.M_PutML1C1C1_0.Stallreqto_in::total            1                      
system.ruby.Directory_Controller.Progress |      183075     10.20%     10.20% |       68903      3.84%     14.04% |      598136     33.34%     47.38% |      944093     52.62%    100.00%
system.ruby.Directory_Controller.Progress::total      1794207                      
system.ruby.Directory_Controller.S.allocTBE |     7853949     29.53%     29.53% |     5106827     19.20%     48.73% |     7724519     29.04%     77.78% |     5910639     22.22%    100.00%
system.ruby.Directory_Controller.S.allocTBE::total     26595934                      
system.ruby.Directory_Controller.S.deallocTBE |     7854749     29.53%     29.53% |     5107592     19.20%     48.73% |     7725285     29.04%     77.78% |     5911446     22.22%    100.00%
system.ruby.Directory_Controller.S.deallocTBE::total     26599072                      
system.ruby.Directory_Controller.S_GetM.Progress |       58001     35.27%     35.27% |        6776      4.12%     39.39% |       96554     58.72%     98.11% |        3110      1.89%    100.00%
system.ruby.Directory_Controller.S_GetM.Progress::total       164441                      
system.ruby.Directory_Controller.S_GetM.Stallreqto_in |       19000      3.91%      3.91% |        1858      0.38%      4.29% |      377697     77.63%     81.92% |       87949     18.08%    100.00%
system.ruby.Directory_Controller.S_GetM.Stallreqto_in::total       486504                      
system.ruby.Directory_Controller.S_GetM.allocTBE |       97937      7.39%      7.39% |       55981      4.23%     11.62% |      279202     21.07%     32.69% |      891820     67.31%    100.00%
system.ruby.Directory_Controller.S_GetM.allocTBE::total      1324940                      
system.ruby.Directory_Controller.S_GetM.deallocTBE |       97937      7.39%      7.39% |       55981      4.23%     11.62% |      279202     21.07%     32.69% |      891820     67.31%    100.00%
system.ruby.Directory_Controller.S_GetM.deallocTBE::total      1324940                      
system.ruby.Directory_Controller.S_GetML1C1C1_0.Stallreqto_in |       15549      3.23%      3.23% |        2671      0.56%      3.79% |      318533     66.24%     70.03% |      144091     29.97%    100.00%
system.ruby.Directory_Controller.S_GetML1C1C1_0.Stallreqto_in::total       480844                      
system.ruby.Directory_Controller.S_GetML1C1C1_1.Stallreqto_in |          10     38.46%     38.46% |          11     42.31%     80.77% |           0      0.00%     80.77% |           5     19.23%    100.00%
system.ruby.Directory_Controller.S_GetML1C1C1_1.Stallreqto_in::total           26                      
system.ruby.Directory_Controller.S_GetML1C1C1_2.Stallreqto_in |        1639      1.21%      1.21% |           8      0.01%      1.22% |      133680     98.75%     99.97% |          44      0.03%    100.00%
system.ruby.Directory_Controller.S_GetML1C1C1_2.Stallreqto_in::total       135371                      
system.ruby.Directory_Controller.S_GetSL1C1C1_0.Stallreqto_in |       45637     15.52%     15.52% |        2304      0.78%     16.30% |      241574     82.16%     98.47% |        4512      1.53%    100.00%
system.ruby.Directory_Controller.S_GetSL1C1C1_0.Stallreqto_in::total       294027                      
system.ruby.Directory_Controller.Stallreqto_in |      277179      7.67%      7.67% |       69772      1.93%      9.60% |     2080130     57.57%     67.18% |     1185872     32.82%    100.00%
system.ruby.Directory_Controller.Stallreqto_in::total      3612953                      
system.ruby.Directory_Controller.allocTBE |    13734671     27.98%     27.98% |     9416481     19.19%     47.17% |    13983911     28.49%     75.66% |    11944516     24.34%    100.00%
system.ruby.Directory_Controller.allocTBE::total     49079579                      
system.ruby.Directory_Controller.deallocTBE |    13734671     27.98%     27.98% |     9416481     19.19%     47.17% |    13983911     28.49%     75.66% |    11944516     24.34%    100.00%
system.ruby.Directory_Controller.deallocTBE::total     49079579                      
system.ruby.IFETCH.hit_latency_hist_seqr::bucket_size            1                      
system.ruby.IFETCH.hit_latency_hist_seqr::max_bucket            9                      
system.ruby.IFETCH.hit_latency_hist_seqr::samples   1952099741                      
system.ruby.IFETCH.hit_latency_hist_seqr |  1952099741    100.00%    100.00% |           0      0.00%    100.00% |           0      0.00%    100.00% |           0      0.00%    100.00% |           0      0.00%    100.00% |           0      0.00%    100.00% |           0      0.00%    100.00% |           0      0.00%    100.00% |           0      0.00%    100.00% |           0      0.00%    100.00%
system.ruby.IFETCH.hit_latency_hist_seqr::total   1952099741                      
system.ruby.IFETCH.latency_hist_seqr::bucket_size            1                      
system.ruby.IFETCH.latency_hist_seqr::max_bucket            9                      
system.ruby.IFETCH.latency_hist_seqr::samples   1954238534                      
system.ruby.IFETCH.latency_hist_seqr     |  1954238534    100.00%    100.00% |           0      0.00%    100.00% |           0      0.00%    100.00% |           0      0.00%    100.00% |           0      0.00%    100.00% |           0      0.00%    100.00% |           0      0.00%    100.00% |           0      0.00%    100.00% |           0      0.00%    100.00% |           0      0.00%    100.00%
system.ruby.IFETCH.latency_hist_seqr::total   1954238534                      
system.ruby.IFETCH.miss_latency_hist_seqr::bucket_size            1                      
system.ruby.IFETCH.miss_latency_hist_seqr::max_bucket            9                      
system.ruby.IFETCH.miss_latency_hist_seqr::samples      2138793                      
system.ruby.IFETCH.miss_latency_hist_seqr |     2138793    100.00%    100.00% |           0      0.00%    100.00% |           0      0.00%    100.00% |           0      0.00%    100.00% |           0      0.00%    100.00% |           0      0.00%    100.00% |           0      0.00%    100.00% |           0      0.00%    100.00% |           0      0.00%    100.00% |           0      0.00%    100.00%
system.ruby.IFETCH.miss_latency_hist_seqr::total      2138793                      
system.ruby.L1Cache_Controller.I.allocI_load |     5687049     24.42%     24.42% |     6004664     25.78%     50.20% |     5964020     25.61%     75.81% |     5633736     24.19%    100.00%
system.ruby.L1Cache_Controller.I.allocI_load::total     23289469                      
system.ruby.L1Cache_Controller.I.allocI_store |      153811     25.81%     25.81% |      136017     22.82%     48.64% |      147081     24.68%     73.32% |      159004     26.68%    100.00%
system.ruby.L1Cache_Controller.I.allocI_store::total       595913                      
system.ruby.L1Cache_Controller.I.deallocfwdfrom_in |     5839852     24.45%     24.45% |     6139672     25.71%     50.16% |     6110088     25.59%     75.75% |     5791716     24.25%    100.00%
system.ruby.L1Cache_Controller.I.deallocfwdfrom_in::total     23881328                      
system.ruby.L1Cache_Controller.I_store.Progress |       48846     20.53%     20.53% |       68509     28.80%     49.33% |       72039     30.28%     79.61% |       48523     20.39%    100.00%
system.ruby.L1Cache_Controller.I_store.Progress::total       237917                      
system.ruby.L1Cache_Controller.I_store.Stallfwdfrom_in |       29308     24.28%     24.28% |       26549     22.00%     46.28% |       34573     28.65%     74.93% |       30263     25.07%    100.00%
system.ruby.L1Cache_Controller.I_store.Stallfwdfrom_in::total       120693                      
system.ruby.L1Cache_Controller.M.MloadMEvent |    20895633     27.20%     27.20% |    17040744     22.18%     49.38% |    17511518     22.79%     72.18% |    21375320     27.82%    100.00%
system.ruby.L1Cache_Controller.M.MloadMEvent::total     76823215                      
system.ruby.L1Cache_Controller.M.MstoreMEvent |    12714701     26.96%     26.96% |    10022281     21.25%     48.22% |    10361313     21.97%     70.19% |    14058789     29.81%    100.00%
system.ruby.L1Cache_Controller.M.MstoreMEvent::total     47157084                      
system.ruby.L1Cache_Controller.M.allocTBE |      353590     15.93%     15.93% |      760919     34.28%     50.21% |      771887     34.77%     84.98% |      333448     15.02%    100.00%
system.ruby.L1Cache_Controller.M.allocTBE::total      2219844                      
system.ruby.L1Cache_Controller.M.externalstoreMrespfrom_in |      353722     15.93%     15.93% |      761037     34.28%     50.21% |      771998     34.77%     84.98% |      333594     15.02%    100.00%
system.ruby.L1Cache_Controller.M.externalstoreMrespfrom_in::total      2220351                      
system.ruby.L1Cache_Controller.M_evict.Stallmandatory_in |        1785     10.79%     10.79% |        6183     37.36%     48.15% |        7276     43.97%     92.12% |        1304      7.88%    100.00%
system.ruby.L1Cache_Controller.M_evict.Stallmandatory_in::total        16548                      
system.ruby.L1Cache_Controller.MloadMEvent |    20895633     27.20%     27.20% |    17040744     22.18%     49.38% |    17511518     22.79%     72.18% |    21375320     27.82%    100.00%
system.ruby.L1Cache_Controller.MloadMEvent::total     76823215                      
system.ruby.L1Cache_Controller.MstoreMEvent |    12714701     26.96%     26.96% |    10022281     21.25%     48.22% |    10361313     21.97%     70.19% |    14058789     29.81%    100.00%
system.ruby.L1Cache_Controller.MstoreMEvent::total     47157084                      
system.ruby.L1Cache_Controller.Progress  |      400030     12.23%     12.23% |     1257597     38.44%     50.67% |     1258807     38.48%     89.14% |      355268     10.86%    100.00%
system.ruby.L1Cache_Controller.Progress::total      3271702                      
system.ruby.L1Cache_Controller.S.SloadSEvent |   606939171     25.40%     25.40% |   580148340     24.28%     49.69% |   585264183     24.50%     74.18% |   616779122     25.82%    100.00%
system.ruby.L1Cache_Controller.S.SloadSEvent::total   2389130816                      
system.ruby.L1Cache_Controller.S.allocTBE |     5803522     23.59%     23.59% |     6545960     26.61%     50.19% |     6509693     26.46%     76.65% |     5744825     23.35%    100.00%
system.ruby.L1Cache_Controller.S.allocTBE::total     24604000                      
system.ruby.L1Cache_Controller.S.deallocTBE |      117349      8.90%      8.90% |      542187     41.13%     50.04% |      546575     41.47%     91.51% |      111967      8.49%    100.00%
system.ruby.L1Cache_Controller.S.deallocTBE::total      1318078                      
system.ruby.L1Cache_Controller.S.externalloadSrespfrom_in |     5687048     24.42%     24.42% |     6004664     25.78%     50.20% |     5964020     25.61%     75.81% |     5633736     24.19%    100.00%
system.ruby.L1Cache_Controller.S.externalloadSrespfrom_in::total     23289468                      
system.ruby.L1Cache_Controller.S_evict.Progress |           4     30.77%     30.77% |           4     30.77%     61.54% |           4     30.77%     92.31% |           1      7.69%    100.00%
system.ruby.L1Cache_Controller.S_evict.Progress::total           13                      
system.ruby.L1Cache_Controller.S_evict.Stallmandatory_in |       23613      9.73%      9.73% |       94293     38.84%     48.57% |      101985     42.01%     90.57% |       22888      9.43%    100.00%
system.ruby.L1Cache_Controller.S_evict.Stallmandatory_in::total       242779                      
system.ruby.L1Cache_Controller.S_evict_x_I.Progress |           2      4.65%      4.65% |          21     48.84%     53.49% |          16     37.21%     90.70% |           4      9.30%    100.00%
system.ruby.L1Cache_Controller.S_evict_x_I.Progress::total           43                      
system.ruby.L1Cache_Controller.S_evict_x_I.Stallmandatory_in |           8      5.37%      5.37% |          70     46.98%     52.35% |          58     38.93%     91.28% |          13      8.72%    100.00%
system.ruby.L1Cache_Controller.S_evict_x_I.Stallmandatory_in::total          149                      
system.ruby.L1Cache_Controller.S_store.Progress |      351178     11.58%     11.58% |     1189063     39.19%     50.77% |     1186747     39.12%     89.89% |      306740     10.11%    100.00%
system.ruby.L1Cache_Controller.S_store.Progress::total      3033728                      
system.ruby.L1Cache_Controller.S_store.Stallfwdfrom_in |        2470     29.42%     29.42% |        2594     30.89%     60.31% |         500      5.95%     66.26% |        2833     33.74%    100.00%
system.ruby.L1Cache_Controller.S_store.Stallfwdfrom_in::total         8397                      
system.ruby.L1Cache_Controller.S_store_GetM_Ack_AD.Progress |           0      0.00%      0.00% |           0      0.00%      0.00% |           1    100.00%    100.00% |           0      0.00%    100.00%
system.ruby.L1Cache_Controller.S_store_GetM_Ack_AD.Progress::total            1                      
system.ruby.L1Cache_Controller.SloadSEvent |   606939171     25.40%     25.40% |   580148340     24.28%     49.69% |   585264183     24.50%     74.18% |   616779122     25.82%    100.00%
system.ruby.L1Cache_Controller.SloadSEvent::total   2389130816                      
system.ruby.L1Cache_Controller.Stallfwdfrom_in |       31778     24.62%     24.62% |       29143     22.58%     47.19% |       35073     27.17%     74.36% |       33096     25.64%    100.00%
system.ruby.L1Cache_Controller.Stallfwdfrom_in::total       129090                      
system.ruby.L1Cache_Controller.Stallmandatory_in |       25406      9.79%      9.79% |      100546     38.75%     48.54% |      109319     42.13%     90.67% |       24205      9.33%    100.00%
system.ruby.L1Cache_Controller.Stallmandatory_in::total       259476                      
system.ruby.L1Cache_Controller.allocI_load |     5687049     24.42%     24.42% |     6004664     25.78%     50.20% |     5964020     25.61%     75.81% |     5633736     24.19%    100.00%
system.ruby.L1Cache_Controller.allocI_load::total     23289469                      
system.ruby.L1Cache_Controller.allocI_store |      153811     25.81%     25.81% |      136017     22.82%     48.64% |      147081     24.68%     73.32% |      159004     26.68%    100.00%
system.ruby.L1Cache_Controller.allocI_store::total       595913                      
system.ruby.L1Cache_Controller.allocTBE  |     6157112     22.95%     22.95% |     7306879     27.24%     50.19% |     7281580     27.15%     77.34% |     6078273     22.66%    100.00%
system.ruby.L1Cache_Controller.allocTBE::total     26823844                      
system.ruby.L1Cache_Controller.deallocTBE |      117349      8.90%      8.90% |      542187     41.13%     50.04% |      546575     41.47%     91.51% |      111967      8.49%    100.00%
system.ruby.L1Cache_Controller.deallocTBE::total      1318078                      
system.ruby.L1Cache_Controller.deallocfwdfrom_in |     5839852     24.45%     24.45% |     6139672     25.71%     50.16% |     6110088     25.59%     75.75% |     5791716     24.25%    100.00%
system.ruby.L1Cache_Controller.deallocfwdfrom_in::total     23881328                      
system.ruby.L1Cache_Controller.externalloadSrespfrom_in |     5687048     24.42%     24.42% |     6004664     25.78%     50.20% |     5964020     25.61%     75.81% |     5633736     24.19%    100.00%
system.ruby.L1Cache_Controller.externalloadSrespfrom_in::total     23289468                      
system.ruby.L1Cache_Controller.externalstoreMrespfrom_in |      353722     15.93%     15.93% |      761037     34.28%     50.21% |      771998     34.77%     84.98% |      333594     15.02%    100.00%
system.ruby.L1Cache_Controller.externalstoreMrespfrom_in::total      2220351                      
system.ruby.LD.hit_latency_hist_seqr::bucket_size            1                      
system.ruby.LD.hit_latency_hist_seqr::max_bucket            9                      
system.ruby.LD.hit_latency_hist_seqr::samples    513854290                      
system.ruby.LD.hit_latency_hist_seqr     |   513854290    100.00%    100.00% |           0      0.00%    100.00% |           0      0.00%    100.00% |           0      0.00%    100.00% |           0      0.00%    100.00% |           0      0.00%    100.00% |           0      0.00%    100.00% |           0      0.00%    100.00% |           0      0.00%    100.00% |           0      0.00%    100.00%
system.ruby.LD.hit_latency_hist_seqr::total    513854290                      
system.ruby.LD.latency_hist_seqr::bucket_size            1                      
system.ruby.LD.latency_hist_seqr::max_bucket            9                      
system.ruby.LD.latency_hist_seqr::samples    535004965                      
system.ruby.LD.latency_hist_seqr         |   535004965    100.00%    100.00% |           0      0.00%    100.00% |           0      0.00%    100.00% |           0      0.00%    100.00% |           0      0.00%    100.00% |           0      0.00%    100.00% |           0      0.00%    100.00% |           0      0.00%    100.00% |           0      0.00%    100.00% |           0      0.00%    100.00%
system.ruby.LD.latency_hist_seqr::total     535004965                      
system.ruby.LD.miss_latency_hist_seqr::bucket_size            1                      
system.ruby.LD.miss_latency_hist_seqr::max_bucket            9                      
system.ruby.LD.miss_latency_hist_seqr::samples     21150675                      
system.ruby.LD.miss_latency_hist_seqr    |    21150675    100.00%    100.00% |           0      0.00%    100.00% |           0      0.00%    100.00% |           0      0.00%    100.00% |           0      0.00%    100.00% |           0      0.00%    100.00% |           0      0.00%    100.00% |           0      0.00%    100.00% |           0      0.00%    100.00% |           0      0.00%    100.00%
system.ruby.LD.miss_latency_hist_seqr::total     21150675                      
system.ruby.Locked_RMW_Read.hit_latency_hist_seqr::bucket_size            1                      
system.ruby.Locked_RMW_Read.hit_latency_hist_seqr::max_bucket            9                      
system.ruby.Locked_RMW_Read.hit_latency_hist_seqr::samples       185319                      
system.ruby.Locked_RMW_Read.hit_latency_hist_seqr |      185319    100.00%    100.00% |           0      0.00%    100.00% |           0      0.00%    100.00% |           0      0.00%    100.00% |           0      0.00%    100.00% |           0      0.00%    100.00% |           0      0.00%    100.00% |           0      0.00%    100.00% |           0      0.00%    100.00% |           0      0.00%    100.00%
system.ruby.Locked_RMW_Read.hit_latency_hist_seqr::total       185319                      
system.ruby.Locked_RMW_Read.latency_hist_seqr::bucket_size            1                      
system.ruby.Locked_RMW_Read.latency_hist_seqr::max_bucket            9                      
system.ruby.Locked_RMW_Read.latency_hist_seqr::samples       548879                      
system.ruby.Locked_RMW_Read.latency_hist_seqr |      548879    100.00%    100.00% |           0      0.00%    100.00% |           0      0.00%    100.00% |           0      0.00%    100.00% |           0      0.00%    100.00% |           0      0.00%    100.00% |           0      0.00%    100.00% |           0      0.00%    100.00% |           0      0.00%    100.00% |           0      0.00%    100.00%
system.ruby.Locked_RMW_Read.latency_hist_seqr::total       548879                      
system.ruby.Locked_RMW_Read.miss_latency_hist_seqr::bucket_size            1                      
system.ruby.Locked_RMW_Read.miss_latency_hist_seqr::max_bucket            9                      
system.ruby.Locked_RMW_Read.miss_latency_hist_seqr::samples       363560                      
system.ruby.Locked_RMW_Read.miss_latency_hist_seqr |      363560    100.00%    100.00% |           0      0.00%    100.00% |           0      0.00%    100.00% |           0      0.00%    100.00% |           0      0.00%    100.00% |           0      0.00%    100.00% |           0      0.00%    100.00% |           0      0.00%    100.00% |           0      0.00%    100.00% |           0      0.00%    100.00%
system.ruby.Locked_RMW_Read.miss_latency_hist_seqr::total       363560                      
system.ruby.Locked_RMW_Write.hit_latency_hist_seqr::bucket_size            1                      
system.ruby.Locked_RMW_Write.hit_latency_hist_seqr::max_bucket            9                      
system.ruby.Locked_RMW_Write.hit_latency_hist_seqr::samples       548879                      
system.ruby.Locked_RMW_Write.hit_latency_hist_seqr |      548879    100.00%    100.00% |           0      0.00%    100.00% |           0      0.00%    100.00% |           0      0.00%    100.00% |           0      0.00%    100.00% |           0      0.00%    100.00% |           0      0.00%    100.00% |           0      0.00%    100.00% |           0      0.00%    100.00% |           0      0.00%    100.00%
system.ruby.Locked_RMW_Write.hit_latency_hist_seqr::total       548879                      
system.ruby.Locked_RMW_Write.latency_hist_seqr::bucket_size            1                      
system.ruby.Locked_RMW_Write.latency_hist_seqr::max_bucket            9                      
system.ruby.Locked_RMW_Write.latency_hist_seqr::samples       548879                      
system.ruby.Locked_RMW_Write.latency_hist_seqr |      548879    100.00%    100.00% |           0      0.00%    100.00% |           0      0.00%    100.00% |           0      0.00%    100.00% |           0      0.00%    100.00% |           0      0.00%    100.00% |           0      0.00%    100.00% |           0      0.00%    100.00% |           0      0.00%    100.00% |           0      0.00%    100.00%
system.ruby.Locked_RMW_Write.latency_hist_seqr::total       548879                      
system.ruby.RMW_Read.hit_latency_hist_seqr::bucket_size            1                      
system.ruby.RMW_Read.hit_latency_hist_seqr::max_bucket            9                      
system.ruby.RMW_Read.hit_latency_hist_seqr::samples       333069                      
system.ruby.RMW_Read.hit_latency_hist_seqr |      333069    100.00%    100.00% |           0      0.00%    100.00% |           0      0.00%    100.00% |           0      0.00%    100.00% |           0      0.00%    100.00% |           0      0.00%    100.00% |           0      0.00%    100.00% |           0      0.00%    100.00% |           0      0.00%    100.00% |           0      0.00%    100.00%
system.ruby.RMW_Read.hit_latency_hist_seqr::total       333069                      
system.ruby.RMW_Read.latency_hist_seqr::bucket_size            1                      
system.ruby.RMW_Read.latency_hist_seqr::max_bucket            9                      
system.ruby.RMW_Read.latency_hist_seqr::samples       464937                      
system.ruby.RMW_Read.latency_hist_seqr   |      464937    100.00%    100.00% |           0      0.00%    100.00% |           0      0.00%    100.00% |           0      0.00%    100.00% |           0      0.00%    100.00% |           0      0.00%    100.00% |           0      0.00%    100.00% |           0      0.00%    100.00% |           0      0.00%    100.00% |           0      0.00%    100.00%
system.ruby.RMW_Read.latency_hist_seqr::total       464937                      
system.ruby.RMW_Read.miss_latency_hist_seqr::bucket_size            1                      
system.ruby.RMW_Read.miss_latency_hist_seqr::max_bucket            9                      
system.ruby.RMW_Read.miss_latency_hist_seqr::samples       131868                      
system.ruby.RMW_Read.miss_latency_hist_seqr |      131868    100.00%    100.00% |           0      0.00%    100.00% |           0      0.00%    100.00% |           0      0.00%    100.00% |           0      0.00%    100.00% |           0      0.00%    100.00% |           0      0.00%    100.00% |           0      0.00%    100.00% |           0      0.00%    100.00% |           0      0.00%    100.00%
system.ruby.RMW_Read.miss_latency_hist_seqr::total       131868                      
system.ruby.ST.hit_latency_hist_seqr::bucket_size            1                      
system.ruby.ST.hit_latency_hist_seqr::max_bucket            9                      
system.ruby.ST.hit_latency_hist_seqr::samples     46089817                      
system.ruby.ST.hit_latency_hist_seqr     |    46089817    100.00%    100.00% |           0      0.00%    100.00% |           0      0.00%    100.00% |           0      0.00%    100.00% |           0      0.00%    100.00% |           0      0.00%    100.00% |           0      0.00%    100.00% |           0      0.00%    100.00% |           0      0.00%    100.00% |           0      0.00%    100.00%
system.ruby.ST.hit_latency_hist_seqr::total     46089817                      
system.ruby.ST.latency_hist_seqr::bucket_size            1                      
system.ruby.ST.latency_hist_seqr::max_bucket            9                      
system.ruby.ST.latency_hist_seqr::samples     47814740                      
system.ruby.ST.latency_hist_seqr         |    47814740    100.00%    100.00% |           0      0.00%    100.00% |           0      0.00%    100.00% |           0      0.00%    100.00% |           0      0.00%    100.00% |           0      0.00%    100.00% |           0      0.00%    100.00% |           0      0.00%    100.00% |           0      0.00%    100.00% |           0      0.00%    100.00%
system.ruby.ST.latency_hist_seqr::total      47814740                      
system.ruby.ST.miss_latency_hist_seqr::bucket_size            1                      
system.ruby.ST.miss_latency_hist_seqr::max_bucket            9                      
system.ruby.ST.miss_latency_hist_seqr::samples      1724923                      
system.ruby.ST.miss_latency_hist_seqr    |     1724923    100.00%    100.00% |           0      0.00%    100.00% |           0      0.00%    100.00% |           0      0.00%    100.00% |           0      0.00%    100.00% |           0      0.00%    100.00% |           0      0.00%    100.00% |           0      0.00%    100.00% |           0      0.00%    100.00% |           0      0.00%    100.00%
system.ruby.ST.miss_latency_hist_seqr::total      1724923                      
system.ruby.dir_cntrl0.fwdFrom.avg_buf_msgs     0.020900                       # Average number of messages in buffer
system.ruby.dir_cntrl0.fwdFrom.avg_stall_time  2999.990601                       # Average number of cycles messages are stalled in this MB
system.ruby.dir_cntrl0.reqTo.avg_buf_msgs     0.008310                       # Average number of messages in buffer
system.ruby.dir_cntrl0.reqTo.avg_stall_time  4293.061613                       # Average number of cycles messages are stalled in this MB
system.ruby.dir_cntrl0.requestToMemory.avg_buf_msgs     0.003597                       # Average number of messages in buffer
system.ruby.dir_cntrl0.requestToMemory.avg_stall_time   500.000223                       # Average number of cycles messages are stalled in this MB
system.ruby.dir_cntrl0.respFrom.avg_buf_msgs     0.020851                       # Average number of messages in buffer
system.ruby.dir_cntrl0.respFrom.avg_stall_time  3001.529407                       # Average number of cycles messages are stalled in this MB
system.ruby.dir_cntrl0.respTo.avg_buf_msgs     0.000142                       # Average number of messages in buffer
system.ruby.dir_cntrl0.respTo.avg_stall_time  6880.892525                       # Average number of cycles messages are stalled in this MB
system.ruby.dir_cntrl0.responseFromMemory.avg_buf_msgs     0.003607                       # Average number of messages in buffer
system.ruby.dir_cntrl0.responseFromMemory.avg_stall_time   499.999955                       # Average number of cycles messages are stalled in this MB
system.ruby.dir_cntrl1.fwdFrom.avg_buf_msgs     0.014319                       # Average number of messages in buffer
system.ruby.dir_cntrl1.fwdFrom.avg_stall_time  2999.967208                       # Average number of cycles messages are stalled in this MB
system.ruby.dir_cntrl1.reqTo.avg_buf_msgs     0.005094                       # Average number of messages in buffer
system.ruby.dir_cntrl1.reqTo.avg_stall_time  4222.174019                       # Average number of cycles messages are stalled in this MB
system.ruby.dir_cntrl1.requestToMemory.avg_buf_msgs     0.002482                       # Average number of messages in buffer
system.ruby.dir_cntrl1.requestToMemory.avg_stall_time   500.000040                       # Average number of cycles messages are stalled in this MB
system.ruby.dir_cntrl1.respFrom.avg_buf_msgs     0.014312                       # Average number of messages in buffer
system.ruby.dir_cntrl1.respFrom.avg_stall_time  3001.692219                       # Average number of cycles messages are stalled in this MB
system.ruby.dir_cntrl1.respTo.avg_buf_msgs     0.000063                       # Average number of messages in buffer
system.ruby.dir_cntrl1.respTo.avg_stall_time  8394.168875                       # Average number of cycles messages are stalled in this MB
system.ruby.dir_cntrl1.responseFromMemory.avg_buf_msgs     0.002487                       # Average number of messages in buffer
system.ruby.dir_cntrl1.responseFromMemory.avg_stall_time   499.999902                       # Average number of cycles messages are stalled in this MB
system.ruby.dir_cntrl2.fwdFrom.avg_buf_msgs     0.021830                       # Average number of messages in buffer
system.ruby.dir_cntrl2.fwdFrom.avg_stall_time  2999.979137                       # Average number of cycles messages are stalled in this MB
system.ruby.dir_cntrl2.reqTo.avg_buf_msgs     0.017479                       # Average number of messages in buffer
system.ruby.dir_cntrl2.reqTo.avg_stall_time  4443.489229                       # Average number of cycles messages are stalled in this MB
system.ruby.dir_cntrl2.requestToMemory.avg_buf_msgs     0.003659                       # Average number of messages in buffer
system.ruby.dir_cntrl2.requestToMemory.avg_stall_time   499.999859                       # Average number of cycles messages are stalled in this MB
system.ruby.dir_cntrl2.respFrom.avg_buf_msgs     0.020708                       # Average number of messages in buffer
system.ruby.dir_cntrl2.respFrom.avg_stall_time  3002.633031                       # Average number of cycles messages are stalled in this MB
system.ruby.dir_cntrl2.respTo.avg_buf_msgs     0.000444                       # Average number of messages in buffer
system.ruby.dir_cntrl2.respTo.avg_stall_time  9240.067591                       # Average number of cycles messages are stalled in this MB
system.ruby.dir_cntrl2.responseFromMemory.avg_buf_msgs     0.003668                       # Average number of messages in buffer
system.ruby.dir_cntrl2.responseFromMemory.avg_stall_time   499.999733                       # Average number of cycles messages are stalled in this MB
system.ruby.dir_cntrl3.fwdFrom.avg_buf_msgs     0.019507                       # Average number of messages in buffer
system.ruby.dir_cntrl3.fwdFrom.avg_stall_time  2999.977085                       # Average number of cycles messages are stalled in this MB
system.ruby.dir_cntrl3.reqTo.avg_buf_msgs     0.011604                       # Average number of messages in buffer
system.ruby.dir_cntrl3.reqTo.avg_stall_time  4779.083907                       # Average number of cycles messages are stalled in this MB
system.ruby.dir_cntrl3.requestToMemory.avg_buf_msgs     0.003323                       # Average number of messages in buffer
system.ruby.dir_cntrl3.requestToMemory.avg_stall_time   500.000009                       # Average number of cycles messages are stalled in this MB
system.ruby.dir_cntrl3.respFrom.avg_buf_msgs     0.016836                       # Average number of messages in buffer
system.ruby.dir_cntrl3.respFrom.avg_stall_time  3002.946937                       # Average number of cycles messages are stalled in this MB
system.ruby.dir_cntrl3.respTo.avg_buf_msgs     0.000930                       # Average number of messages in buffer
system.ruby.dir_cntrl3.respTo.avg_stall_time  7840.546514                       # Average number of cycles messages are stalled in this MB
system.ruby.dir_cntrl3.responseFromMemory.avg_buf_msgs     0.003330                       # Average number of messages in buffer
system.ruby.dir_cntrl3.responseFromMemory.avg_stall_time   499.999955                       # Average number of cycles messages are stalled in this MB
system.ruby.dma_cntrl0.cache.demand_accesses            0                       # Number of cache demand accesses
system.ruby.dma_cntrl0.cache.demand_hits            0                       # Number of cache demand hits
system.ruby.dma_cntrl0.cache.demand_misses            0                       # Number of cache demand misses
system.ruby.dma_cntrl0.fully_busy_cycles         2593                       # cycles for which number of transistions == max transitions
system.ruby.dma_cntrl0.fwdFrom.avg_buf_msgs     0.000001                       # Average number of messages in buffer
system.ruby.dma_cntrl0.fwdFrom.avg_stall_time  3254.782775                       # Average number of cycles messages are stalled in this MB
system.ruby.dma_cntrl0.mandatoryQueue.avg_buf_msgs     0.000052                       # Average number of messages in buffer
system.ruby.dma_cntrl0.mandatoryQueue.avg_stall_time  7221.361602                       # Average number of cycles messages are stalled in this MB
system.ruby.dma_cntrl0.reqTo.avg_buf_msgs     0.000022                       # Average number of messages in buffer
system.ruby.dma_cntrl0.reqTo.avg_stall_time    96.401426                       # Average number of cycles messages are stalled in this MB
system.ruby.dma_cntrl0.respFrom.avg_buf_msgs     0.000002                       # Average number of messages in buffer
system.ruby.dma_cntrl0.respFrom.avg_stall_time 29585.764469                       # Average number of cycles messages are stalled in this MB
system.ruby.dma_cntrl0.respTo.avg_buf_msgs     0.000000                       # Average number of messages in buffer
system.ruby.dma_cntrl0.respTo.avg_stall_time   192.573262                       # Average number of cycles messages are stalled in this MB
system.ruby.hit_latency_hist_seqr::bucket_size            1                      
system.ruby.hit_latency_hist_seqr::max_bucket            9                      
system.ruby.hit_latency_hist_seqr::samples   2513111115                      
system.ruby.hit_latency_hist_seqr        |  2513111115    100.00%    100.00% |           0      0.00%    100.00% |           0      0.00%    100.00% |           0      0.00%    100.00% |           0      0.00%    100.00% |           0      0.00%    100.00% |           0      0.00%    100.00% |           0      0.00%    100.00% |           0      0.00%    100.00% |           0      0.00%    100.00%
system.ruby.hit_latency_hist_seqr::total   2513111115                      
system.ruby.io_controller.cache.demand_accesses            0                       # Number of cache demand accesses
system.ruby.io_controller.cache.demand_hits            0                       # Number of cache demand hits
system.ruby.io_controller.cache.demand_misses            0                       # Number of cache demand misses
system.ruby.l1_cntrl0.cache.demand_accesses            0                       # Number of cache demand accesses
system.ruby.l1_cntrl0.cache.demand_hits             0                       # Number of cache demand hits
system.ruby.l1_cntrl0.cache.demand_misses            0                       # Number of cache demand misses
system.ruby.l1_cntrl0.fully_busy_cycles           974                       # cycles for which number of transistions == max transitions
system.ruby.l1_cntrl0.fwdFrom.avg_buf_msgs  3944.307156                       # Average number of messages in buffer
system.ruby.l1_cntrl0.fwdFrom.avg_stall_time  6606.770841                       # Average number of cycles messages are stalled in this MB
system.ruby.l1_cntrl0.mandatoryQueue.avg_buf_msgs     0.390425                       # Average number of messages in buffer
system.ruby.l1_cntrl0.mandatoryQueue.avg_stall_time  3167.960020                       # Average number of cycles messages are stalled in this MB
system.ruby.l1_cntrl0.reqTo.avg_buf_msgs     0.005921                       # Average number of messages in buffer
system.ruby.l1_cntrl0.reqTo.avg_stall_time   499.797413                       # Average number of cycles messages are stalled in this MB
system.ruby.l1_cntrl0.respFrom.avg_buf_msgs     0.003146                       # Average number of messages in buffer
system.ruby.l1_cntrl0.respFrom.avg_stall_time 16487.202227                       # Average number of cycles messages are stalled in this MB
system.ruby.l1_cntrl0.respTo.avg_buf_msgs     0.000511                       # Average number of messages in buffer
system.ruby.l1_cntrl0.respTo.avg_stall_time   999.786555                       # Average number of cycles messages are stalled in this MB
system.ruby.l1_cntrl1.cache.demand_accesses            0                       # Number of cache demand accesses
system.ruby.l1_cntrl1.cache.demand_hits             0                       # Number of cache demand hits
system.ruby.l1_cntrl1.cache.demand_misses            0                       # Number of cache demand misses
system.ruby.l1_cntrl1.fully_busy_cycles          2579                       # cycles for which number of transistions == max transitions
system.ruby.l1_cntrl1.fwdFrom.avg_buf_msgs  4019.649018                       # Average number of messages in buffer
system.ruby.l1_cntrl1.fwdFrom.avg_stall_time  6518.810178                       # Average number of cycles messages are stalled in this MB
system.ruby.l1_cntrl1.mandatoryQueue.avg_buf_msgs     0.374113                       # Average number of messages in buffer
system.ruby.l1_cntrl1.mandatoryQueue.avg_stall_time  3193.146199                       # Average number of cycles messages are stalled in this MB
system.ruby.l1_cntrl1.reqTo.avg_buf_msgs     0.006218                       # Average number of messages in buffer
system.ruby.l1_cntrl1.reqTo.avg_stall_time   500.000014                       # Average number of cycles messages are stalled in this MB
system.ruby.l1_cntrl1.respFrom.avg_buf_msgs     0.003722                       # Average number of messages in buffer
system.ruby.l1_cntrl1.respFrom.avg_stall_time 16400.891941                       # Average number of cycles messages are stalled in this MB
system.ruby.l1_cntrl1.respTo.avg_buf_msgs     0.001851                       # Average number of messages in buffer
system.ruby.l1_cntrl1.respTo.avg_stall_time   999.682782                       # Average number of cycles messages are stalled in this MB
system.ruby.l1_cntrl2.cache.demand_accesses            0                       # Number of cache demand accesses
system.ruby.l1_cntrl2.cache.demand_hits             0                       # Number of cache demand hits
system.ruby.l1_cntrl2.cache.demand_misses            0                       # Number of cache demand misses
system.ruby.l1_cntrl2.fully_busy_cycles          3031                       # cycles for which number of transistions == max transitions
system.ruby.l1_cntrl2.fwdFrom.avg_buf_msgs  4274.125036                       # Average number of messages in buffer
system.ruby.l1_cntrl2.fwdFrom.avg_stall_time  6580.133194                       # Average number of cycles messages are stalled in this MB
system.ruby.l1_cntrl2.mandatoryQueue.avg_buf_msgs     0.375048                       # Average number of messages in buffer
system.ruby.l1_cntrl2.mandatoryQueue.avg_stall_time  3082.847348                       # Average number of cycles messages are stalled in this MB
system.ruby.l1_cntrl2.reqTo.avg_buf_msgs     0.006184                       # Average number of messages in buffer
system.ruby.l1_cntrl2.reqTo.avg_stall_time   500.000018                       # Average number of cycles messages are stalled in this MB
system.ruby.l1_cntrl2.respFrom.avg_buf_msgs     0.003706                       # Average number of messages in buffer
system.ruby.l1_cntrl2.respFrom.avg_stall_time 16464.096148                       # Average number of cycles messages are stalled in this MB
system.ruby.l1_cntrl2.respTo.avg_buf_msgs     0.001875                       # Average number of messages in buffer
system.ruby.l1_cntrl2.respTo.avg_stall_time   999.622024                       # Average number of cycles messages are stalled in this MB
system.ruby.l1_cntrl3.cache.demand_accesses            0                       # Number of cache demand accesses
system.ruby.l1_cntrl3.cache.demand_hits             0                       # Number of cache demand hits
system.ruby.l1_cntrl3.cache.demand_misses            0                       # Number of cache demand misses
system.ruby.l1_cntrl3.fully_busy_cycles           841                       # cycles for which number of transistions == max transitions
system.ruby.l1_cntrl3.fwdFrom.avg_buf_msgs  3915.987190                       # Average number of messages in buffer
system.ruby.l1_cntrl3.fwdFrom.avg_stall_time  6483.083602                       # Average number of cycles messages are stalled in this MB
system.ruby.l1_cntrl3.mandatoryQueue.avg_buf_msgs     0.397666                       # Average number of messages in buffer
system.ruby.l1_cntrl3.mandatoryQueue.avg_stall_time  3262.381821                       # Average number of cycles messages are stalled in this MB
system.ruby.l1_cntrl3.reqTo.avg_buf_msgs     0.005858                       # Average number of messages in buffer
system.ruby.l1_cntrl3.reqTo.avg_stall_time   500.000031                       # Average number of cycles messages are stalled in this MB
system.ruby.l1_cntrl3.respFrom.avg_buf_msgs     0.003099                       # Average number of messages in buffer
system.ruby.l1_cntrl3.respFrom.avg_stall_time 16457.867229                       # Average number of cycles messages are stalled in this MB
system.ruby.l1_cntrl3.respTo.avg_buf_msgs     0.000505                       # Average number of messages in buffer
system.ruby.l1_cntrl3.respTo.avg_stall_time   999.738299                       # Average number of cycles messages are stalled in this MB
system.ruby.latency_hist_seqr::bucket_size            1                      
system.ruby.latency_hist_seqr::max_bucket            9                      
system.ruby.latency_hist_seqr::samples     2538620934                      
system.ruby.latency_hist_seqr            |  2538620934    100.00%    100.00% |           0      0.00%    100.00% |           0      0.00%    100.00% |           0      0.00%    100.00% |           0      0.00%    100.00% |           0      0.00%    100.00% |           0      0.00%    100.00% |           0      0.00%    100.00% |           0      0.00%    100.00% |           0      0.00%    100.00%
system.ruby.latency_hist_seqr::total       2538620934                      
system.ruby.miss_latency_hist_seqr::bucket_size            1                      
system.ruby.miss_latency_hist_seqr::max_bucket            9                      
system.ruby.miss_latency_hist_seqr::samples     25509819                      
system.ruby.miss_latency_hist_seqr       |    25509819    100.00%    100.00% |           0      0.00%    100.00% |           0      0.00%    100.00% |           0      0.00%    100.00% |           0      0.00%    100.00% |           0      0.00%    100.00% |           0      0.00%    100.00% |           0      0.00%    100.00% |           0      0.00%    100.00% |           0      0.00%    100.00%
system.ruby.miss_latency_hist_seqr::total     25509819                      
system.ruby.network.average_flit_latency    15.995623                      
system.ruby.network.average_flit_network_latency    11.549769                      
system.ruby.network.average_flit_queueing_latency     4.445855                      
system.ruby.network.average_flit_vnet_latency |   14.922241                       |    5.035543                       |    5.596617                      
system.ruby.network.average_flit_vqueue_latency |    5.415220                       |    6.000029                       |    1.000728                      
system.ruby.network.average_hops             1.031614                      
system.ruby.network.average_packet_latency    13.807864                      
system.ruby.network.average_packet_network_latency    10.389614                      
system.ruby.network.average_packet_queueing_latency     3.418250                      
system.ruby.network.average_packet_vnet_latency |   23.037237                       |    5.035543                       |    5.255153                      
system.ruby.network.average_packet_vqueue_latency |    5.077226                       |    6.000029                       |    1.000764                      
system.ruby.network.avg_link_utilization     0.326891                      
system.ruby.network.avg_vc_load          |    0.155921     47.70%     47.70% |    0.021312      6.52%     54.22% |    0.017688      5.41%     59.63% |    0.017278      5.29%     64.91% |    0.028833      8.82%     73.73% |    0.003278      1.00%     74.74% |    0.003211      0.98%     75.72% |    0.003211      0.98%     76.70% |    0.056582     17.31%     94.01% |    0.006885      2.11%     96.12% |    0.006347      1.94%     98.06% |    0.006345      1.94%    100.00%
system.ruby.network.avg_vc_load::total       0.326891                      
system.ruby.network.ext_in_link_utilization    212924355                      
system.ruby.network.ext_out_link_utilization    212924354                      
system.ruby.network.flit_network_latency |  2051050572                       |   127701955                       |   280474488                      
system.ruby.network.flit_queueing_latency |   744317854                       |   152161430                       |    50151484                      
system.ruby.network.flits_injected       |   137449237     64.55%     64.55% |    25360117     11.91%     76.46% |    50115003     23.54%    100.00%
system.ruby.network.flits_injected::total    212924357                      
system.ruby.network.flits_received       |   137449234     64.55%     64.55% |    25360117     11.91%     76.46% |    50115003     23.54%    100.00%
system.ruby.network.flits_received::total    212924354                      
system.ruby.network.int_link_utilization    219655717                      
system.ruby.network.packet_network_latency |   693932159                       |   127701955                       |   250957928                      
system.ruby.network.packet_queueing_latency |   152937194                       |   152161430                       |    47791120                      
system.ruby.network.packets_injected     |    30122197     29.18%     29.18% |    25360117     24.56%     53.74% |    47754639     46.26%    100.00%
system.ruby.network.packets_injected::total    103236953                      
system.ruby.network.packets_received     |    30122196     29.18%     29.18% |    25360117     24.56%     53.74% |    47754639     46.26%    100.00%
system.ruby.network.packets_received::total    103236952                      
system.ruby.network.routers0.buffer_reads    106686323                      
system.ruby.network.routers0.buffer_writes    106686323                      
system.ruby.network.routers0.crossbar_activity    106686323                      
system.ruby.network.routers0.sw_input_arbiter_activity    106891248                      
system.ruby.network.routers0.sw_output_arbiter_activity    106686323                      
system.ruby.network.routers1.buffer_reads    103373803                      
system.ruby.network.routers1.buffer_writes    103373803                      
system.ruby.network.routers1.crossbar_activity    103373803                      
system.ruby.network.routers1.sw_input_arbiter_activity    103566238                      
system.ruby.network.routers1.sw_output_arbiter_activity    103373803                      
system.ruby.network.routers2.buffer_reads    115490613                      
system.ruby.network.routers2.buffer_writes    115490613                      
system.ruby.network.routers2.crossbar_activity    115490613                      
system.ruby.network.routers2.sw_input_arbiter_activity    115781372                      
system.ruby.network.routers2.sw_output_arbiter_activity    115490613                      
system.ruby.network.routers3.buffer_reads    107029332                      
system.ruby.network.routers3.buffer_writes    107029332                      
system.ruby.network.routers3.crossbar_activity    107029332                      
system.ruby.network.routers3.sw_input_arbiter_activity    107227995                      
system.ruby.network.routers3.sw_output_arbiter_activity    107029332                      
system.ruby.outstanding_req_hist_seqr::bucket_size            1                      
system.ruby.outstanding_req_hist_seqr::max_bucket            9                      
system.ruby.outstanding_req_hist_seqr::samples   2538620935                      
system.ruby.outstanding_req_hist_seqr::mean     1.004188                      
system.ruby.outstanding_req_hist_seqr::gmean     1.002907                      
system.ruby.outstanding_req_hist_seqr::stdev     0.064579                      
system.ruby.outstanding_req_hist_seqr    |           0      0.00%      0.00% |  2527989257     99.58%     99.58% |    10631678      0.42%    100.00% |           0      0.00%    100.00% |           0      0.00%    100.00% |           0      0.00%    100.00% |           0      0.00%    100.00% |           0      0.00%    100.00% |           0      0.00%    100.00% |           0      0.00%    100.00%
system.ruby.outstanding_req_hist_seqr::total   2538620935                      
system.switch_cpus0.Branches                 41559841                       # Number of branches fetched
system.switch_cpus0.committedInsts          349807508                       # Number of instructions committed
system.switch_cpus0.committedOps            634608464                       # Number of ops (including micro ops) committed
system.switch_cpus0.dtb.rdAccesses          133049722                       # TLB accesses on read requests
system.switch_cpus0.dtb.rdMisses               962177                       # TLB misses on read requests
system.switch_cpus0.dtb.wrAccesses           12840013                       # TLB accesses on write requests
system.switch_cpus0.dtb.wrMisses                31362                       # TLB misses on write requests
system.switch_cpus0.idle_fraction            0.026083                       # Percentage of idle cycles
system.switch_cpus0.itb.rdAccesses                  0                       # TLB accesses on read requests
system.switch_cpus0.itb.rdMisses                    0                       # TLB misses on read requests
system.switch_cpus0.itb.wrAccesses          497523926                       # TLB accesses on write requests
system.switch_cpus0.itb.wrMisses                78042                       # TLB misses on write requests
system.switch_cpus0.kern.inst.arm                   0                       # number of arm instructions executed
system.switch_cpus0.kern.inst.quiesce               0                       # number of quiesce instructions executed
system.switch_cpus0.not_idle_fraction        0.973917                       # Percentage of non-idle cycles
system.switch_cpus0.numCycles              1974675287                       # number of cpu cycles simulated
system.switch_cpus0.numWorkItemsCompleted            0                       # number of work items this cpu completed
system.switch_cpus0.numWorkItemsStarted             0                       # number of work items this cpu started
system.switch_cpus0.num_busy_cycles      1923169185.478020                       # Number of busy cycles
system.switch_cpus0.num_cc_register_reads    212211112                       # number of times the CC registers were read
system.switch_cpus0.num_cc_register_writes    138608025                       # number of times the CC registers were written
system.switch_cpus0.num_conditional_control_insts     38432807                       # number of instructions that are conditional controls
system.switch_cpus0.num_fp_alu_accesses     319768107                       # Number of float alu accesses
system.switch_cpus0.num_fp_insts            319768107                       # number of float instructions
system.switch_cpus0.num_fp_register_reads    408513488                       # number of times the floating registers were read
system.switch_cpus0.num_fp_register_writes    315415112                       # number of times the floating registers were written
system.switch_cpus0.num_func_calls            1151064                       # number of times a function call or return occured
system.switch_cpus0.num_idle_cycles      51506101.521980                       # Number of idle cycles
system.switch_cpus0.num_int_alu_accesses    405939961                       # Number of integer alu accesses
system.switch_cpus0.num_int_insts           405939961                       # number of integer instructions
system.switch_cpus0.num_int_register_reads    812481586                       # number of times the integer registers were read
system.switch_cpus0.num_int_register_writes    260683444                       # number of times the integer registers were written
system.switch_cpus0.num_load_insts          129428876                       # Number of load instructions
system.switch_cpus0.num_mem_refs            142237890                       # number of memory refs
system.switch_cpus0.num_store_insts          12809014                       # Number of store instructions
system.switch_cpus0.num_vec_alu_accesses            0                       # Number of vector alu accesses
system.switch_cpus0.num_vec_insts                   0                       # number of vector instructions
system.switch_cpus0.num_vec_register_reads            0                       # number of times the vector registers were read
system.switch_cpus0.num_vec_register_writes            0                       # number of times the vector registers were written
system.switch_cpus0.op_class::No_OpClass      3039806      0.48%      0.48% # Class of executed instruction
system.switch_cpus0.op_class::IntAlu        264099843     41.62%     42.10% # Class of executed instruction
system.switch_cpus0.op_class::IntMult           69825      0.01%     42.11% # Class of executed instruction
system.switch_cpus0.op_class::IntDiv           308657      0.05%     42.15% # Class of executed instruction
system.switch_cpus0.op_class::FloatAdd       87866951     13.85%     56.00% # Class of executed instruction
system.switch_cpus0.op_class::FloatCmp              0      0.00%     56.00% # Class of executed instruction
system.switch_cpus0.op_class::FloatCvt           5152      0.00%     56.00% # Class of executed instruction
system.switch_cpus0.op_class::FloatMult             0      0.00%     56.00% # Class of executed instruction
system.switch_cpus0.op_class::FloatMultAcc            0      0.00%     56.00% # Class of executed instruction
system.switch_cpus0.op_class::FloatDiv              0      0.00%     56.00% # Class of executed instruction
system.switch_cpus0.op_class::FloatMisc             0      0.00%     56.00% # Class of executed instruction
system.switch_cpus0.op_class::FloatSqrt             0      0.00%     56.00% # Class of executed instruction
system.switch_cpus0.op_class::SimdAdd             510      0.00%     56.00% # Class of executed instruction
system.switch_cpus0.op_class::SimdAddAcc            0      0.00%     56.00% # Class of executed instruction
system.switch_cpus0.op_class::SimdAlu         2648592      0.42%     56.42% # Class of executed instruction
system.switch_cpus0.op_class::SimdCmp               0      0.00%     56.42% # Class of executed instruction
system.switch_cpus0.op_class::SimdCvt             336      0.00%     56.42% # Class of executed instruction
system.switch_cpus0.op_class::SimdMisc          62791      0.01%     56.43% # Class of executed instruction
system.switch_cpus0.op_class::SimdMult              0      0.00%     56.43% # Class of executed instruction
system.switch_cpus0.op_class::SimdMultAcc            0      0.00%     56.43% # Class of executed instruction
system.switch_cpus0.op_class::SimdShift           236      0.00%     56.43% # Class of executed instruction
system.switch_cpus0.op_class::SimdShiftAcc            0      0.00%     56.43% # Class of executed instruction
system.switch_cpus0.op_class::SimdDiv               0      0.00%     56.43% # Class of executed instruction
system.switch_cpus0.op_class::SimdSqrt              0      0.00%     56.43% # Class of executed instruction
system.switch_cpus0.op_class::SimdFloatAdd     87670336     13.81%     70.24% # Class of executed instruction
system.switch_cpus0.op_class::SimdFloatAlu            0      0.00%     70.24% # Class of executed instruction
system.switch_cpus0.op_class::SimdFloatCmp            0      0.00%     70.24% # Class of executed instruction
system.switch_cpus0.op_class::SimdFloatCvt      2688164      0.42%     70.67% # Class of executed instruction
system.switch_cpus0.op_class::SimdFloatDiv        20488      0.00%     70.67% # Class of executed instruction
system.switch_cpus0.op_class::SimdFloatMisc            0      0.00%     70.67% # Class of executed instruction
system.switch_cpus0.op_class::SimdFloatMult     43888895      6.92%     77.59% # Class of executed instruction
system.switch_cpus0.op_class::SimdFloatMultAcc            0      0.00%     77.59% # Class of executed instruction
system.switch_cpus0.op_class::SimdFloatSqrt            0      0.00%     77.59% # Class of executed instruction
system.switch_cpus0.op_class::SimdReduceAdd            0      0.00%     77.59% # Class of executed instruction
system.switch_cpus0.op_class::SimdReduceAlu            0      0.00%     77.59% # Class of executed instruction
system.switch_cpus0.op_class::SimdReduceCmp            0      0.00%     77.59% # Class of executed instruction
system.switch_cpus0.op_class::SimdFloatReduceAdd            0      0.00%     77.59% # Class of executed instruction
system.switch_cpus0.op_class::SimdFloatReduceCmp            0      0.00%     77.59% # Class of executed instruction
system.switch_cpus0.op_class::SimdAes               0      0.00%     77.59% # Class of executed instruction
system.switch_cpus0.op_class::SimdAesMix            0      0.00%     77.59% # Class of executed instruction
system.switch_cpus0.op_class::SimdSha1Hash            0      0.00%     77.59% # Class of executed instruction
system.switch_cpus0.op_class::SimdSha1Hash2            0      0.00%     77.59% # Class of executed instruction
system.switch_cpus0.op_class::SimdSha256Hash            0      0.00%     77.59% # Class of executed instruction
system.switch_cpus0.op_class::SimdSha256Hash2            0      0.00%     77.59% # Class of executed instruction
system.switch_cpus0.op_class::SimdShaSigma2            0      0.00%     77.59% # Class of executed instruction
system.switch_cpus0.op_class::SimdShaSigma3            0      0.00%     77.59% # Class of executed instruction
system.switch_cpus0.op_class::SimdPredAlu            0      0.00%     77.59% # Class of executed instruction
system.switch_cpus0.op_class::MemRead        37505271      5.91%     83.50% # Class of executed instruction
system.switch_cpus0.op_class::MemWrite        9833642      1.55%     85.05% # Class of executed instruction
system.switch_cpus0.op_class::FloatMemRead     91923605     14.49%     99.53% # Class of executed instruction
system.switch_cpus0.op_class::FloatMemWrite      2975372      0.47%    100.00% # Class of executed instruction
system.switch_cpus0.op_class::IprAccess             0      0.00%    100.00% # Class of executed instruction
system.switch_cpus0.op_class::InstPrefetch            0      0.00%    100.00% # Class of executed instruction
system.switch_cpus0.op_class::total         634608472                       # Class of executed instruction
system.switch_cpus1.Branches                 37686501                       # Number of branches fetched
system.switch_cpus1.committedInsts          331753844                       # Number of instructions committed
system.switch_cpus1.committedOps            602361409                       # Number of ops (including micro ops) committed
system.switch_cpus1.dtb.rdAccesses          126998567                       # TLB accesses on read requests
system.switch_cpus1.dtb.rdMisses               956180                       # TLB misses on read requests
system.switch_cpus1.dtb.wrAccesses           10575993                       # TLB accesses on write requests
system.switch_cpus1.dtb.wrMisses                32219                       # TLB misses on write requests
system.switch_cpus1.idle_fraction            0.030435                       # Percentage of idle cycles
[...]
system.mem_ctrls1.llc.tags.warmup_cycle  101883768130500                       # Cycle when the warmup percentage was hit.
system.mem_ctrls1.llc.tags.occ_blocks::.ruby.dir_cntrl1  5696.547270                       # Average occupied blocks per requestor
system.mem_ctrls1.llc.tags.occ_percent::.ruby.dir_cntrl1     0.021731                       # Average percentage of cache occupancy
system.mem_ctrls1.llc.tags.occ_percent::total     0.021731                       # Average percentage of cache occupancy
system.mem_ctrls1.llc.tags.occ_task_id_blocks::1024         8416                       # Occupied blocks per task id
system.mem_ctrls1.llc.tags.age_task_id_blocks_1024::0            8                       # Occupied blocks per task id
system.mem_ctrls1.llc.tags.age_task_id_blocks_1024::1           20                       # Occupied blocks per task id
system.mem_ctrls1.llc.tags.age_task_id_blocks_1024::2            2                       # Occupied blocks per task id
system.mem_ctrls1.llc.tags.age_task_id_blocks_1024::3          738                       # Occupied blocks per task id
system.mem_ctrls1.llc.tags.age_task_id_blocks_1024::4         7648                       # Occupied blocks per task id
system.mem_ctrls1.llc.tags.occ_task_id_percent::1024     0.032104                       # Percentage of cache occupancy per task id
system.mem_ctrls1.llc.tags.tag_accesses      78439728                       # Number of tag accesses
system.mem_ctrls1.llc.tags.data_accesses      4901957                       # Number of data accesses
system.mem_ctrls1.llc.tags.power_state.pwrStateResidencyTicks::UNDEFINED 102871105648001                       # Cumulative time (in ticks) in various power states
system.mem_ctrls1.rank1.actEnergy            11109840                       # Energy for activate commands per rank (pJ)
system.mem_ctrls1.rank1.preEnergy             5905020                       # Energy for precharge commands per rank (pJ)
system.mem_ctrls1.rank1.readEnergy           31565940                       # Energy for read commands per rank (pJ)
system.mem_ctrls1.rank1.writeEnergy                 0                       # Energy for write commands per rank (pJ)
system.mem_ctrls1.rank1.refreshEnergy    77939425200.000015                       # Energy for refresh commands per rank (pJ)
system.mem_ctrls1.rank1.actBackEnergy     16336847520                       # Energy for active background per rank (pJ)
system.mem_ctrls1.rank1.preBackEnergy    365380236960                       # Energy for precharge background per rank (pJ)
system.mem_ctrls1.rank1.actPowerDownEnergy            0                       # Energy for active power-down per rank (pJ)
system.mem_ctrls1.rank1.prePowerDownEnergy            0                       # Energy for precharge power-down per rank (pJ)
system.mem_ctrls1.rank1.selfRefreshEnergy            0                       # Energy for self refresh per rank (pJ)
system.mem_ctrls1.rank1.totalEnergy      459705090480                       # Total energy per rank (pJ)
system.mem_ctrls1.rank1.averagePower       465.600670                       # Core power per rank (mW)
system.mem_ctrls1.rank1.totalIdleTime               0                       # Total Idle time Per DRAM Rank
system.mem_ctrls1.rank1.memoryStateTime::IDLE 949756114251                       # Time in different power states
system.mem_ctrls1.rank1.memoryStateTime::REF  32969300000                       # Time in different power states
system.mem_ctrls1.rank1.memoryStateTime::SREF            0                       # Time in different power states
system.mem_ctrls1.rank1.memoryStateTime::PRE_PDN            0                       # Time in different power states
system.mem_ctrls1.rank1.memoryStateTime::ACT   4612276750                       # Time in different power states
system.mem_ctrls1.rank1.memoryStateTime::ACT_PDN            0                       # Time in different power states
system.mem_ctrls1.rank0.actEnergy            11559660                       # Energy for activate commands per rank (pJ)
system.mem_ctrls1.rank0.preEnergy             6144105                       # Energy for precharge commands per rank (pJ)
system.mem_ctrls1.rank0.readEnergy           28524300                       # Energy for read commands per rank (pJ)
system.mem_ctrls1.rank0.writeEnergy                 0                       # Energy for write commands per rank (pJ)
system.mem_ctrls1.rank0.refreshEnergy    77939425200.000015                       # Energy for refresh commands per rank (pJ)
system.mem_ctrls1.rank0.actBackEnergy     16208273190                       # Energy for active background per rank (pJ)
system.mem_ctrls1.rank0.preBackEnergy    365488554720                       # Energy for precharge background per rank (pJ)
system.mem_ctrls1.rank0.actPowerDownEnergy            0                       # Energy for active power-down per rank (pJ)
system.mem_ctrls1.rank0.prePowerDownEnergy            0                       # Energy for precharge power-down per rank (pJ)
system.mem_ctrls1.rank0.selfRefreshEnergy            0                       # Energy for self refresh per rank (pJ)
system.mem_ctrls1.rank0.totalEnergy      459682481175                       # Total energy per rank (pJ)
system.mem_ctrls1.rank0.averagePower       465.577771                       # Core power per rank (mW)
system.mem_ctrls1.rank0.totalIdleTime               0                       # Total Idle time Per DRAM Rank
system.mem_ctrls1.rank0.memoryStateTime::IDLE 950038493501                       # Time in different power states
system.mem_ctrls1.rank0.memoryStateTime::REF  32969300000                       # Time in different power states
system.mem_ctrls1.rank0.memoryStateTime::SREF            0                       # Time in different power states
system.mem_ctrls1.rank0.memoryStateTime::PRE_PDN            0                       # Time in different power states
system.mem_ctrls1.rank0.memoryStateTime::ACT   4329897500                       # Time in different power states
system.mem_ctrls1.rank0.memoryStateTime::ACT_PDN            0                       # Time in different power states
system.mem_ctrls1.power_state.pwrStateResidencyTicks::UNDEFINED 102871105648001                       # Cumulative time (in ticks) in various power states
system.cpu_voltage_domain.voltage                   1                       # Voltage in Volts
system.iobus.trans_dist::ReadReq                 1669                       # Transaction distribution
system.iobus.trans_dist::ReadResp                1669                       # Transaction distribution
system.iobus.trans_dist::WriteReq                9369                       # Transaction distribution
system.iobus.trans_dist::WriteResp               9369                       # Transaction distribution
system.iobus.pkt_count_system.pc.south_bridge.io_apic.int_master::system.ruby.l1_cntrl1.sequencer.pio-slave-port          260                       # Packet count per connected master and slave (bytes)
system.iobus.pkt_count_system.pc.south_bridge.io_apic.int_master::total          260                       # Packet count per connected master and slave (bytes)
system.iobus.pkt_count_system.ruby.l1_cntrl0.sequencer.mem-master-port::system.pc.south_bridge.ide.pio          102                       # Packet count per connected master and slave (bytes)
system.iobus.pkt_count_system.ruby.l1_cntrl0.sequencer.mem-master-port::system.ruby.l1_cntrl0.sequencer.pio-slave-port         4964                       # Packet count per connected master and slave (bytes)
system.iobus.pkt_count_system.ruby.l1_cntrl0.sequencer.mem-master-port::system.ruby.l1_cntrl1.sequencer.pio-slave-port          298                       # Packet count per connected master and slave (bytes)
system.iobus.pkt_count_system.ruby.l1_cntrl0.sequencer.mem-master-port::system.ruby.l1_cntrl2.sequencer.pio-slave-port          264                       # Packet count per connected master and slave (bytes)
system.iobus.pkt_count_system.ruby.l1_cntrl0.sequencer.mem-master-port::system.ruby.l1_cntrl3.sequencer.pio-slave-port          254                       # Packet count per connected master and slave (bytes)
system.iobus.pkt_count_system.ruby.l1_cntrl0.sequencer.mem-master-port::total         5882                       # Packet count per connected master and slave (bytes)
system.iobus.pkt_count_system.ruby.l1_cntrl1.sequencer.mem-master-port::system.pc.south_bridge.ide.pio           36                       # Packet count per connected master and slave (bytes)
system.iobus.pkt_count_system.ruby.l1_cntrl1.sequencer.mem-master-port::system.pc.com_1.pio         1010                       # Packet count per connected master and slave (bytes)
system.iobus.pkt_count_system.ruby.l1_cntrl1.sequencer.mem-master-port::system.ruby.l1_cntrl0.sequencer.pio-slave-port          220                       # Packet count per connected master and slave (bytes)
system.iobus.pkt_count_system.ruby.l1_cntrl1.sequencer.mem-master-port::system.ruby.l1_cntrl1.sequencer.pio-slave-port         4446                       # Packet count per connected master and slave (bytes)
system.iobus.pkt_count_system.ruby.l1_cntrl1.sequencer.mem-master-port::system.ruby.l1_cntrl2.sequencer.pio-slave-port          152                       # Packet count per connected master and slave (bytes)
system.iobus.pkt_count_system.ruby.l1_cntrl1.sequencer.mem-master-port::system.ruby.l1_cntrl3.sequencer.pio-slave-port          222                       # Packet count per connected master and slave (bytes)
system.iobus.pkt_count_system.ruby.l1_cntrl1.sequencer.mem-master-port::total         6086                       # Packet count per connected master and slave (bytes)
system.iobus.pkt_count_system.ruby.l1_cntrl2.sequencer.mem-master-port::system.pc.com_1.pio            6                       # Packet count per connected master and slave (bytes)
system.iobus.pkt_count_system.ruby.l1_cntrl2.sequencer.mem-master-port::system.ruby.l1_cntrl0.sequencer.pio-slave-port          170                       # Packet count per connected master and slave (bytes)
system.iobus.pkt_count_system.ruby.l1_cntrl2.sequencer.mem-master-port::system.ruby.l1_cntrl1.sequencer.pio-slave-port          200                       # Packet count per connected master and slave (bytes)
system.iobus.pkt_count_system.ruby.l1_cntrl2.sequencer.mem-master-port::system.ruby.l1_cntrl2.sequencer.pio-slave-port         4180                       # Packet count per connected master and slave (bytes)
system.iobus.pkt_count_system.ruby.l1_cntrl2.sequencer.mem-master-port::system.ruby.l1_cntrl3.sequencer.pio-slave-port          166                       # Packet count per connected master and slave (bytes)
system.iobus.pkt_count_system.ruby.l1_cntrl2.sequencer.mem-master-port::total         4722                       # Packet count per connected master and slave (bytes)
system.iobus.pkt_count_system.ruby.l1_cntrl3.sequencer.mem-master-port::system.ruby.l1_cntrl0.sequencer.pio-slave-port          206                       # Packet count per connected master and slave (bytes)
system.iobus.pkt_count_system.ruby.l1_cntrl3.sequencer.mem-master-port::system.ruby.l1_cntrl1.sequencer.pio-slave-port          206                       # Packet count per connected master and slave (bytes)
system.iobus.pkt_count_system.ruby.l1_cntrl3.sequencer.mem-master-port::system.ruby.l1_cntrl2.sequencer.pio-slave-port          222                       # Packet count per connected master and slave (bytes)
system.iobus.pkt_count_system.ruby.l1_cntrl3.sequencer.mem-master-port::system.ruby.l1_cntrl3.sequencer.pio-slave-port         4492                       # Packet count per connected master and slave (bytes)
system.iobus.pkt_count_system.ruby.l1_cntrl3.sequencer.mem-master-port::total         5126                       # Packet count per connected master and slave (bytes)
system.iobus.pkt_count::total                   22076                       # Packet count per connected master and slave (bytes)
system.iobus.pkt_size_system.pc.south_bridge.io_apic.int_master::system.ruby.l1_cntrl1.sequencer.pio-slave-port          520                       # Cumulative packet size per connected master and slave (bytes)
system.iobus.pkt_size_system.pc.south_bridge.io_apic.int_master::total          520                       # Cumulative packet size per connected master and slave (bytes)
system.iobus.pkt_size_system.ruby.l1_cntrl0.sequencer.mem-master-port::system.pc.south_bridge.ide.pio           60                       # Cumulative packet size per connected master and slave (bytes)
system.iobus.pkt_size_system.ruby.l1_cntrl0.sequencer.mem-master-port::system.ruby.l1_cntrl0.sequencer.pio-slave-port         9928                       # Cumulative packet size per connected master and slave (bytes)
system.iobus.pkt_size_system.ruby.l1_cntrl0.sequencer.mem-master-port::system.ruby.l1_cntrl1.sequencer.pio-slave-port          596                       # Cumulative packet size per connected master and slave (bytes)
system.iobus.pkt_size_system.ruby.l1_cntrl0.sequencer.mem-master-port::system.ruby.l1_cntrl2.sequencer.pio-slave-port          528                       # Cumulative packet size per connected master and slave (bytes)
system.iobus.pkt_size_system.ruby.l1_cntrl0.sequencer.mem-master-port::system.ruby.l1_cntrl3.sequencer.pio-slave-port          508                       # Cumulative packet size per connected master and slave (bytes)
system.iobus.pkt_size_system.ruby.l1_cntrl0.sequencer.mem-master-port::total        11620                       # Cumulative packet size per connected master and slave (bytes)
system.iobus.pkt_size_system.ruby.l1_cntrl1.sequencer.mem-master-port::system.pc.south_bridge.ide.pio           18                       # Cumulative packet size per connected master and slave (bytes)
system.iobus.pkt_size_system.ruby.l1_cntrl1.sequencer.mem-master-port::system.pc.com_1.pio          505                       # Cumulative packet size per connected master and slave (bytes)
system.iobus.pkt_size_system.ruby.l1_cntrl1.sequencer.mem-master-port::system.ruby.l1_cntrl0.sequencer.pio-slave-port          440                       # Cumulative packet size per connected master and slave (bytes)
system.iobus.pkt_size_system.ruby.l1_cntrl1.sequencer.mem-master-port::system.ruby.l1_cntrl1.sequencer.pio-slave-port         8892                       # Cumulative packet size per connected master and slave (bytes)
system.iobus.pkt_size_system.ruby.l1_cntrl1.sequencer.mem-master-port::system.ruby.l1_cntrl2.sequencer.pio-slave-port          304                       # Cumulative packet size per connected master and slave (bytes)
system.iobus.pkt_size_system.ruby.l1_cntrl1.sequencer.mem-master-port::system.ruby.l1_cntrl3.sequencer.pio-slave-port          444                       # Cumulative packet size per connected master and slave (bytes)
system.iobus.pkt_size_system.ruby.l1_cntrl1.sequencer.mem-master-port::total        10603                       # Cumulative packet size per connected master and slave (bytes)
system.iobus.pkt_size_system.ruby.l1_cntrl2.sequencer.mem-master-port::system.pc.com_1.pio            3                       # Cumulative packet size per connected master and slave (bytes)
system.iobus.pkt_size_system.ruby.l1_cntrl2.sequencer.mem-master-port::system.ruby.l1_cntrl0.sequencer.pio-slave-port          340                       # Cumulative packet size per connected master and slave (bytes)
system.iobus.pkt_size_system.ruby.l1_cntrl2.sequencer.mem-master-port::system.ruby.l1_cntrl1.sequencer.pio-slave-port          400                       # Cumulative packet size per connected master and slave (bytes)
system.iobus.pkt_size_system.ruby.l1_cntrl2.sequencer.mem-master-port::system.ruby.l1_cntrl2.sequencer.pio-slave-port         8360                       # Cumulative packet size per connected master and slave (bytes)
system.iobus.pkt_size_system.ruby.l1_cntrl2.sequencer.mem-master-port::system.ruby.l1_cntrl3.sequencer.pio-slave-port          332                       # Cumulative packet size per connected master and slave (bytes)
system.iobus.pkt_size_system.ruby.l1_cntrl2.sequencer.mem-master-port::total         9435                       # Cumulative packet size per connected master and slave (bytes)
system.iobus.pkt_size_system.ruby.l1_cntrl3.sequencer.mem-master-port::system.ruby.l1_cntrl0.sequencer.pio-slave-port          412                       # Cumulative packet size per connected master and slave (bytes)
system.iobus.pkt_size_system.ruby.l1_cntrl3.sequencer.mem-master-port::system.ruby.l1_cntrl1.sequencer.pio-slave-port          412                       # Cumulative packet size per connected master and slave (bytes)
system.iobus.pkt_size_system.ruby.l1_cntrl3.sequencer.mem-master-port::system.ruby.l1_cntrl2.sequencer.pio-slave-port          444                       # Cumulative packet size per connected master and slave (bytes)
system.iobus.pkt_size_system.ruby.l1_cntrl3.sequencer.mem-master-port::system.ruby.l1_cntrl3.sequencer.pio-slave-port         8984                       # Cumulative packet size per connected master and slave (bytes)
system.iobus.pkt_size_system.ruby.l1_cntrl3.sequencer.mem-master-port::total        10252                       # Cumulative packet size per connected master and slave (bytes)
system.iobus.pkt_size::total                    42430                       # Cumulative packet size per connected master and slave (bytes)
system.iobus.reqLayer2.occupancy               114500                       # Layer occupancy (ticks)
system.iobus.reqLayer2.utilization                0.0                       # Layer utilization (%)
system.iobus.power_state.pwrStateResidencyTicks::UNDEFINED 102871105648001                       # Cumulative time (in ticks) in various power states
system.iobus.reqLayer19.occupancy             5494472                       # Layer occupancy (ticks)
system.iobus.reqLayer19.utilization               0.0                       # Layer utilization (%)
system.iobus.reqLayer17.occupancy             6109440                       # Layer occupancy (ticks)
system.iobus.reqLayer17.utilization               0.0                       # Layer utilization (%)
system.iobus.reqLayer12.occupancy              641000                       # Layer occupancy (ticks)
system.iobus.reqLayer12.utilization               0.0                       # Layer utilization (%)
system.iobus.reqLayer18.occupancy             6095912                       # Layer occupancy (ticks)
system.iobus.reqLayer18.utilization               0.0                       # Layer utilization (%)
system.iobus.respLayer9.occupancy             3998500                       # Layer occupancy (ticks)
system.iobus.respLayer9.utilization               0.0                       # Layer utilization (%)
system.iobus.respLayer5.occupancy             4835500                       # Layer occupancy (ticks)
system.iobus.respLayer5.utilization               0.0                       # Layer utilization (%)
system.iobus.respLayer7.occupancy             3667500                       # Layer occupancy (ticks)
system.iobus.respLayer7.utilization               0.0                       # Layer utilization (%)
system.iobus.respLayer0.occupancy              195997                       # Layer occupancy (ticks)
system.iobus.respLayer0.utilization               0.0                       # Layer utilization (%)
system.iobus.respLayer3.occupancy             4592500                       # Layer occupancy (ticks)
system.iobus.respLayer3.utilization               0.0                       # Layer utilization (%)
system.iobus.reqLayer20.occupancy             5787397                       # Layer occupancy (ticks)
system.iobus.reqLayer20.utilization               0.0                       # Layer utilization (%)

---------- End Simulation Statistics   ----------
