
---------- Begin Simulation Statistics ----------
final_tick                               109077593355001                       # Number of ticks from beginning of simulation (restored from checkpoints and never reset)
host_inst_rate                                7193344                       # Simulator instruction rate (inst/s)
host_mem_usage                                1672180                       # Number of bytes of host memory used
host_op_rate                                  7395043                       # Simulator op (including micro ops) rate (op/s)
host_seconds                                  3449.84                       # Real time elapsed on the host
host_tick_rate                              166406531                       # Simulator tick rate (ticks/s)
sim_freq                                 1000000000000                       # Frequency of simulated ticks
sim_insts                                 24815870209                       # Number of instructions simulated
sim_ops                                   25511700729                       # Number of ops (including micro ops) simulated
sim_seconds                                  0.574076                       # Number of seconds simulated
sim_ticks                                574075583501                       # Number of ticks simulated
system.cpu0.committedInsts                          0                       # Number of instructions committed
system.cpu0.dtb.rdAccesses                          0                       # TLB accesses on read requests
system.cpu0.dtb.rdMisses                            0                       # TLB misses on read requests
system.cpu0.dtb.wrAccesses                          0                       # TLB accesses on write requests
system.cpu0.dtb.wrMisses                            0                       # TLB misses on write requests
system.cpu0.itb.rdAccesses                          0                       # TLB accesses on read requests
system.cpu0.itb.rdMisses                            0                       # TLB misses on read requests
system.cpu0.itb.wrAccesses                          0                       # TLB accesses on write requests
system.cpu0.itb.wrMisses                            0                       # TLB misses on write requests
system.cpu0.kern.inst.arm                           0                       # number of arm instructions executed
system.cpu0.kern.inst.quiesce                       0                       # number of quiesce instructions executed
system.cpu0.numCoalescedMMIO                        0                       # number of coalesced memory mapped IO requests
system.cpu0.numCycles                               0                       # number of cpu cycles simulated
system.cpu0.numExitSignal                           0                       # exits due to signal delivery
system.cpu0.numHalt                                 0                       # number of VM exits due to wait for interrupt instructions
system.cpu0.numHypercalls                           0                       # number of hypercalls
system.cpu0.numIO                                   0                       # number of VM exits due to legacy IO
system.cpu0.numInterrupts                           0                       # number of interrupts delivered
system.cpu0.numMMIO                                 0                       # number of VM exits due to memory mapped IO
system.cpu0.numVMExits                              0                       # total number of KVM exits
system.cpu0.numVMHalfEntries                        0                       # number of KVM entries to finalize pending operations
system.cpu0.numWorkItemsCompleted                   0                       # number of work items this cpu completed
system.cpu0.numWorkItemsStarted                     0                       # number of work items this cpu started
system.cpu1.committedInsts                          0                       # Number of instructions committed
system.cpu1.dtb.rdAccesses                          0                       # TLB accesses on read requests
system.cpu1.dtb.rdMisses                            0                       # TLB misses on read requests
system.cpu1.dtb.wrAccesses                          0                       # TLB accesses on write requests
system.cpu1.dtb.wrMisses                            0                       # TLB misses on write requests
system.cpu1.itb.rdAccesses                          0                       # TLB accesses on read requests
system.cpu1.itb.rdMisses                            0                       # TLB misses on read requests
system.cpu1.itb.wrAccesses                          0                       # TLB accesses on write requests
system.cpu1.itb.wrMisses                            0                       # TLB misses on write requests
system.cpu1.kern.inst.arm                           0                       # number of arm instructions executed
system.cpu1.kern.inst.quiesce                       0                       # number of quiesce instructions executed
system.cpu1.numCoalescedMMIO                        0                       # number of coalesced memory mapped IO requests
system.cpu1.numCycles                               0                       # number of cpu cycles simulated
system.cpu1.numExitSignal                           0                       # exits due to signal delivery
system.cpu1.numHalt                                 0                       # number of VM exits due to wait for interrupt instructions
system.cpu1.numHypercalls                           0                       # number of hypercalls
system.cpu1.numIO                                   0                       # number of VM exits due to legacy IO
system.cpu1.numInterrupts                           0                       # number of interrupts delivered
system.cpu1.numMMIO                                 0                       # number of VM exits due to memory mapped IO
system.cpu1.numVMExits                              0                       # total number of KVM exits
system.cpu1.numVMHalfEntries                        0                       # number of KVM entries to finalize pending operations
system.cpu1.numWorkItemsCompleted                   0                       # number of work items this cpu completed
system.cpu1.numWorkItemsStarted                     0                       # number of work items this cpu started
system.cpu2.committedInsts                          0                       # Number of instructions committed
system.cpu2.dtb.rdAccesses                          0                       # TLB accesses on read requests
system.cpu2.dtb.rdMisses                            0                       # TLB misses on read requests
system.cpu2.dtb.wrAccesses                          0                       # TLB accesses on write requests
system.cpu2.dtb.wrMisses                            0                       # TLB misses on write requests
system.cpu2.itb.rdAccesses                          0                       # TLB accesses on read requests
system.cpu2.itb.rdMisses                            0                       # TLB misses on read requests
system.cpu2.itb.wrAccesses                          0                       # TLB accesses on write requests
system.cpu2.itb.wrMisses                            0                       # TLB misses on write requests
system.cpu2.kern.inst.arm                           0                       # number of arm instructions executed
system.cpu2.kern.inst.quiesce                       0                       # number of quiesce instructions executed
system.cpu2.numCoalescedMMIO                        0                       # number of coalesced memory mapped IO requests
system.cpu2.numCycles                               0                       # number of cpu cycles simulated
system.cpu2.numExitSignal                           0                       # exits due to signal delivery
system.cpu2.numHalt                                 0                       # number of VM exits due to wait for interrupt instructions
system.cpu2.numHypercalls                           0                       # number of hypercalls
system.cpu2.numIO                                   0                       # number of VM exits due to legacy IO
system.cpu2.numInterrupts                           0                       # number of interrupts delivered
system.cpu2.numMMIO                                 0                       # number of VM exits due to memory mapped IO
system.cpu2.numVMExits                              0                       # total number of KVM exits
system.cpu2.numVMHalfEntries                        0                       # number of KVM entries to finalize pending operations
system.cpu2.numWorkItemsCompleted                   0                       # number of work items this cpu completed
system.cpu2.numWorkItemsStarted                     0                       # number of work items this cpu started
system.cpu3.committedInsts                          0                       # Number of instructions committed
system.cpu3.dtb.rdAccesses                          0                       # TLB accesses on read requests
system.cpu3.dtb.rdMisses                            0                       # TLB misses on read requests
system.cpu3.dtb.wrAccesses                          0                       # TLB accesses on write requests
system.cpu3.dtb.wrMisses                            0                       # TLB misses on write requests
system.cpu3.itb.rdAccesses                          0                       # TLB accesses on read requests
system.cpu3.itb.rdMisses                            0                       # TLB misses on read requests
system.cpu3.itb.wrAccesses                          0                       # TLB accesses on write requests
system.cpu3.itb.wrMisses                            0                       # TLB misses on write requests
system.cpu3.kern.inst.arm                           0                       # number of arm instructions executed
system.cpu3.kern.inst.quiesce                       0                       # number of quiesce instructions executed
system.cpu3.numCoalescedMMIO                        0                       # number of coalesced memory mapped IO requests
system.cpu3.numCycles                               0                       # number of cpu cycles simulated
system.cpu3.numExitSignal                           0                       # exits due to signal delivery
system.cpu3.numHalt                                 0                       # number of VM exits due to wait for interrupt instructions
system.cpu3.numHypercalls                           0                       # number of hypercalls
system.cpu3.numIO                                   0                       # number of VM exits due to legacy IO
system.cpu3.numInterrupts                           0                       # number of interrupts delivered
system.cpu3.numMMIO                                 0                       # number of VM exits due to memory mapped IO
system.cpu3.numVMExits                              0                       # total number of KVM exits
system.cpu3.numVMHalfEntries                        0                       # number of KVM entries to finalize pending operations
system.cpu3.numWorkItemsCompleted                   0                       # number of work items this cpu completed
system.cpu3.numWorkItemsStarted                     0                       # number of work items this cpu started
system.pc.south_bridge.ide.disks.dma_read_bytes            0                       # Number of bytes transfered via DMA reads (not PRD).
system.pc.south_bridge.ide.disks.dma_read_full_pages            0                       # Number of full page size DMA reads (not PRD).
system.pc.south_bridge.ide.disks.dma_read_txs            0                       # Number of DMA read transactions (not PRD).
system.pc.south_bridge.ide.disks.dma_write_bytes       217088                       # Number of bytes transfered via DMA writes.
system.pc.south_bridge.ide.disks.dma_write_full_pages           53                       # Number of full page size DMA writes.
system.pc.south_bridge.ide.disks.dma_write_txs           53                       # Number of DMA write transactions.
system.ruby.DMA_Controller.I.allocI_load |           5    100.00%    100.00% |           0      0.00%    100.00%
system.ruby.DMA_Controller.I.allocI_load::total            5                      
system.ruby.DMA_Controller.I.allocI_store |        3392    100.00%    100.00% |           0      0.00%    100.00%
system.ruby.DMA_Controller.I.allocI_store::total         3392                      
system.ruby.DMA_Controller.I.deallocfwdfrom_in |        2373    100.00%    100.00% |           0      0.00%    100.00%
system.ruby.DMA_Controller.I.deallocfwdfrom_in::total         2373                      
system.ruby.DMA_Controller.M.allocTBE    |        2371    100.00%    100.00% |           0      0.00%    100.00%
system.ruby.DMA_Controller.M.allocTBE::total         2371                      
system.ruby.DMA_Controller.M.externalstoreMrespfrom_in |        3392    100.00%    100.00% |           0      0.00%    100.00%
system.ruby.DMA_Controller.M.externalstoreMrespfrom_in::total         3392                      
system.ruby.DMA_Controller.M_evict.Stallmandatory_in |      129311    100.00%    100.00% |           0      0.00%    100.00%
system.ruby.DMA_Controller.M_evict.Stallmandatory_in::total       129311                      
system.ruby.DMA_Controller.S.SloadSEvent |           2    100.00%    100.00% |           0      0.00%    100.00%
system.ruby.DMA_Controller.S.SloadSEvent::total            2                      
system.ruby.DMA_Controller.S.allocTBE    |           6    100.00%    100.00% |           0      0.00%    100.00%
system.ruby.DMA_Controller.S.allocTBE::total            6                      
system.ruby.DMA_Controller.S.deallocTBE  |           4    100.00%    100.00% |           0      0.00%    100.00%
system.ruby.DMA_Controller.S.deallocTBE::total            4                      
system.ruby.DMA_Controller.S.externalloadSrespfrom_in |           5    100.00%    100.00% |           0      0.00%    100.00%
system.ruby.DMA_Controller.S.externalloadSrespfrom_in::total            5                      
system.ruby.DMA_Controller.S_evict.Stallmandatory_in |          72    100.00%    100.00% |           0      0.00%    100.00%
system.ruby.DMA_Controller.S_evict.Stallmandatory_in::total           72                      
system.ruby.DMA_Controller.SloadSEvent   |           2    100.00%    100.00% |           0      0.00%    100.00%
system.ruby.DMA_Controller.SloadSEvent::total            2                      
system.ruby.DMA_Controller.Stallmandatory_in |      129383    100.00%    100.00% |           0      0.00%    100.00%
system.ruby.DMA_Controller.Stallmandatory_in::total       129383                      
system.ruby.DMA_Controller.allocI_load   |           5    100.00%    100.00% |           0      0.00%    100.00%
system.ruby.DMA_Controller.allocI_load::total            5                      
system.ruby.DMA_Controller.allocI_store  |        3392    100.00%    100.00% |           0      0.00%    100.00%
system.ruby.DMA_Controller.allocI_store::total         3392                      
system.ruby.DMA_Controller.allocTBE      |        2377    100.00%    100.00% |           0      0.00%    100.00%
system.ruby.DMA_Controller.allocTBE::total         2377                      
system.ruby.DMA_Controller.deallocTBE    |           4    100.00%    100.00% |           0      0.00%    100.00%
system.ruby.DMA_Controller.deallocTBE::total            4                      
system.ruby.DMA_Controller.deallocfwdfrom_in |        2373    100.00%    100.00% |           0      0.00%    100.00%
system.ruby.DMA_Controller.deallocfwdfrom_in::total         2373                      
system.ruby.DMA_Controller.externalloadSrespfrom_in |           5    100.00%    100.00% |           0      0.00%    100.00%
system.ruby.DMA_Controller.externalloadSrespfrom_in::total            5                      
system.ruby.DMA_Controller.externalstoreMrespfrom_in |        3392    100.00%    100.00% |           0      0.00%    100.00%
system.ruby.DMA_Controller.externalstoreMrespfrom_in::total         3392                      
system.ruby.Directory_Controller.I.allocTBE |      367919     25.69%     25.69% |      361583     25.24%     50.93% |      348386     24.32%     75.25% |      354455     24.75%    100.00%
system.ruby.Directory_Controller.I.allocTBE::total      1432343                      
system.ruby.Directory_Controller.I.deallocTBE |      366959     25.69%     25.69% |      360636     25.24%     50.93% |      347452     24.32%     75.25% |      353555     24.75%    100.00%
system.ruby.Directory_Controller.I.deallocTBE::total      1428602                      
system.ruby.Directory_Controller.I_GetSL1C1_0.Stallreqto_in |         157     17.03%     17.03% |         237     25.70%     42.73% |         252     27.33%     70.07% |         276     29.93%    100.00%
system.ruby.Directory_Controller.I_GetSL1C1_0.Stallreqto_in::total          922                      
system.ruby.Directory_Controller.M.allocTBE |       54217     26.12%     26.12% |       48421     23.33%     49.46% |       52248     25.18%     74.63% |       52649     25.37%    100.00%
system.ruby.Directory_Controller.M.allocTBE::total       207535                      
system.ruby.Directory_Controller.M.deallocTBE |       54600     26.12%     26.12% |       48800     23.34%     49.46% |       52630     25.17%     74.63% |       53033     25.37%    100.00%
system.ruby.Directory_Controller.M.deallocTBE::total       209063                      
system.ruby.Directory_Controller.M_GetS.Progress |        1426     36.75%     36.75% |         837     21.57%     58.32% |         797     20.54%     78.87% |         820     21.13%    100.00%
system.ruby.Directory_Controller.M_GetS.Progress::total         3880                      
system.ruby.Directory_Controller.M_GetS.Stallreqto_in |           2      6.90%      6.90% |           5     17.24%     24.14% |          16     55.17%     79.31% |           6     20.69%    100.00%
system.ruby.Directory_Controller.M_GetS.Stallreqto_in::total           29                      
system.ruby.Directory_Controller.M_GetS_WBL1C1_0.Stallreqto_in |          13      6.99%      6.99% |          89     47.85%     54.84% |          42     22.58%     77.42% |          42     22.58%    100.00%
system.ruby.Directory_Controller.M_GetS_WBL1C1_0.Stallreqto_in::total          186                      
system.ruby.Directory_Controller.Progress |        1426     36.75%     36.75% |         837     21.57%     58.32% |         797     20.54%     78.87% |         820     21.13%    100.00%
system.ruby.Directory_Controller.Progress::total         3880                      
system.ruby.Directory_Controller.S.allocTBE |      648946     25.41%     25.41% |      666566     26.10%     51.50% |      609824     23.87%     75.37% |      629044     24.63%    100.00%
system.ruby.Directory_Controller.S.allocTBE::total      2554380                      
system.ruby.Directory_Controller.S.deallocTBE |      649523     25.41%     25.41% |      667134     26.09%     51.50% |      610376     23.87%     75.38% |      629560     24.62%    100.00%
system.ruby.Directory_Controller.S.deallocTBE::total      2556593                      
system.ruby.Directory_Controller.S_GetML1C1_0.Stallreqto_in |           0      0.00%      0.00% |           0      0.00%      0.00% |           0      0.00%      0.00% |           4    100.00%    100.00%
system.ruby.Directory_Controller.S_GetML1C1_0.Stallreqto_in::total            4                      
system.ruby.Directory_Controller.S_GetML1C1_1.Stallreqto_in |           0      0.00%      0.00% |           0      0.00%      0.00% |           4    100.00%    100.00% |           0      0.00%    100.00%
system.ruby.Directory_Controller.S_GetML1C1_1.Stallreqto_in::total            4                      
system.ruby.Directory_Controller.S_GetSL1C1_0.Stallreqto_in |          84     28.67%     28.67% |          66     22.53%     51.19% |          59     20.14%     71.33% |          84     28.67%    100.00%
system.ruby.Directory_Controller.S_GetSL1C1_0.Stallreqto_in::total          293                      
system.ruby.Directory_Controller.Stallreqto_in |         256     17.80%     17.80% |         397     27.61%     45.41% |         373     25.94%     71.35% |         412     28.65%    100.00%
system.ruby.Directory_Controller.Stallreqto_in::total         1438                      
system.ruby.Directory_Controller.allocTBE |     1071082     25.54%     25.54% |     1076570     25.67%     51.20% |     1010458     24.09%     75.30% |     1036148     24.70%    100.00%
system.ruby.Directory_Controller.allocTBE::total      4194258                      
system.ruby.Directory_Controller.deallocTBE |     1071082     25.54%     25.54% |     1076570     25.67%     51.20% |     1010458     24.09%     75.30% |     1036148     24.70%    100.00%
system.ruby.Directory_Controller.deallocTBE::total      4194258                      
system.ruby.IFETCH.hit_latency_hist_seqr::bucket_size            1                      
system.ruby.IFETCH.hit_latency_hist_seqr::max_bucket            9                      
system.ruby.IFETCH.hit_latency_hist_seqr::samples   1536475779                      
system.ruby.IFETCH.hit_latency_hist_seqr |  1536475779    100.00%    100.00% |           0      0.00%    100.00% |           0      0.00%    100.00% |           0      0.00%    100.00% |           0      0.00%    100.00% |           0      0.00%    100.00% |           0      0.00%    100.00% |           0      0.00%    100.00% |           0      0.00%    100.00% |           0      0.00%    100.00%
system.ruby.IFETCH.hit_latency_hist_seqr::total   1536475779                      
system.ruby.IFETCH.latency_hist_seqr::bucket_size            1                      
system.ruby.IFETCH.latency_hist_seqr::max_bucket            9                      
system.ruby.IFETCH.latency_hist_seqr::samples   1537086213                      
system.ruby.IFETCH.latency_hist_seqr     |  1537086213    100.00%    100.00% |           0      0.00%    100.00% |           0      0.00%    100.00% |           0      0.00%    100.00% |           0      0.00%    100.00% |           0      0.00%    100.00% |           0      0.00%    100.00% |           0      0.00%    100.00% |           0      0.00%    100.00% |           0      0.00%    100.00%
system.ruby.IFETCH.latency_hist_seqr::total   1537086213                      
system.ruby.IFETCH.miss_latency_hist_seqr::bucket_size            1                      
system.ruby.IFETCH.miss_latency_hist_seqr::max_bucket            9                      
system.ruby.IFETCH.miss_latency_hist_seqr::samples       610434                      
system.ruby.IFETCH.miss_latency_hist_seqr |      610434    100.00%    100.00% |           0      0.00%    100.00% |           0      0.00%    100.00% |           0      0.00%    100.00% |           0      0.00%    100.00% |           0      0.00%    100.00% |           0      0.00%    100.00% |           0      0.00%    100.00% |           0      0.00%    100.00% |           0      0.00%    100.00%
system.ruby.IFETCH.miss_latency_hist_seqr::total       610434                      
system.ruby.L1Cache_Controller.I.allocI_load |      535830     27.73%     27.73% |      442046     22.88%     50.61% |      483810     25.04%     75.66% |      470306     24.34%    100.00%
system.ruby.L1Cache_Controller.I.allocI_load::total      1931992                      
system.ruby.L1Cache_Controller.I.allocI_store |       33240     25.35%     25.35% |       24169     18.43%     43.79% |       32656     24.91%     68.70% |       41039     31.30%    100.00%
system.ruby.L1Cache_Controller.I.allocI_store::total       131104                      
system.ruby.L1Cache_Controller.I.deallocfwdfrom_in |      568054     27.59%     27.59% |      465201     22.59%     50.18% |      515444     25.03%     75.22% |      510326     24.78%    100.00%
system.ruby.L1Cache_Controller.I.deallocfwdfrom_in::total      2059025                      
system.ruby.L1Cache_Controller.I_store.Progress |        1917     96.62%     96.62% |          25      1.26%     97.88% |          34      1.71%     99.60% |           8      0.40%    100.00%
system.ruby.L1Cache_Controller.I_store.Progress::total         1984                      
system.ruby.L1Cache_Controller.I_store.Stallfwdfrom_in |           2     50.00%     50.00% |           2     50.00%    100.00% |           0      0.00%    100.00% |           0      0.00%    100.00%
system.ruby.L1Cache_Controller.I_store.Stallfwdfrom_in::total            4                      
system.ruby.L1Cache_Controller.M.MloadMEvent |    63362161     23.35%     23.35% |    67126292     24.74%     48.09% |    70747351     26.07%     74.16% |    70124295     25.84%    100.00%
system.ruby.L1Cache_Controller.M.MloadMEvent::total    271360099                      
system.ruby.L1Cache_Controller.M.MstoreMEvent |    28612781     25.35%     25.35% |    27832494     24.66%     50.01% |    27733515     24.57%     74.58% |    28684651     25.42%    100.00%
system.ruby.L1Cache_Controller.M.MstoreMEvent::total    112863441                      
system.ruby.L1Cache_Controller.M.allocTBE |       61499     29.98%     29.98% |       40519     19.75%     49.73% |       52200     25.44%     75.17% |       50946     24.83%    100.00%
system.ruby.L1Cache_Controller.M.allocTBE::total       205164                      
system.ruby.L1Cache_Controller.M.externalstoreMrespfrom_in |       61610     29.96%     29.96% |       40655     19.77%     49.72% |       52335     25.45%     75.17% |       51071     24.83%    100.00%
system.ruby.L1Cache_Controller.M.externalstoreMrespfrom_in::total       205671                      
system.ruby.L1Cache_Controller.M_evict.Stallmandatory_in |          75     37.50%     37.50% |          37     18.50%     56.00% |          68     34.00%     90.00% |          20     10.00%    100.00%
system.ruby.L1Cache_Controller.M_evict.Stallmandatory_in::total          200                      
system.ruby.L1Cache_Controller.MloadMEvent |    63362161     23.35%     23.35% |    67126292     24.74%     48.09% |    70747351     26.07%     74.16% |    70124295     25.84%    100.00%
system.ruby.L1Cache_Controller.MloadMEvent::total    271360099                      
system.ruby.L1Cache_Controller.MstoreMEvent |    28612781     25.35%     25.35% |    27832494     24.66%     50.01% |    27733515     24.57%     74.58% |    28684651     25.42%    100.00%
system.ruby.L1Cache_Controller.MstoreMEvent::total    112863441                      
system.ruby.L1Cache_Controller.Progress  |       34933     42.67%     42.67% |       16773     20.49%     63.16% |       19955     24.38%     87.54% |       10202     12.46%    100.00%
system.ruby.L1Cache_Controller.Progress::total        81863                      
system.ruby.L1Cache_Controller.S.SloadSEvent |   413873591     26.13%     26.13% |   388378753     24.52%     50.65% |   389128019     24.57%     75.21% |   392617794     24.79%    100.00%
system.ruby.L1Cache_Controller.S.SloadSEvent::total   1583998157                      
system.ruby.L1Cache_Controller.S.allocTBE |      538029     27.84%     27.84% |      441428     22.84%     50.69% |      483258     25.01%     75.70% |      469589     24.30%    100.00%
system.ruby.L1Cache_Controller.S.allocTBE::total      1932304                      
system.ruby.L1Cache_Controller.S.deallocTBE |        3104     80.08%     80.08% |         260      6.71%     86.79% |         335      8.64%     95.43% |         177      4.57%    100.00%
system.ruby.L1Cache_Controller.S.deallocTBE::total         3876                      
system.ruby.L1Cache_Controller.S.externalloadSrespfrom_in |      535830     27.73%     27.73% |      442046     22.88%     50.61% |      483810     25.04%     75.66% |      470306     24.34%    100.00%
system.ruby.L1Cache_Controller.S.externalloadSrespfrom_in::total      1931992                      
system.ruby.L1Cache_Controller.S_evict.Stallmandatory_in |         528     76.63%     76.63% |          49      7.11%     83.74% |          95     13.79%     97.53% |          17      2.47%    100.00%
system.ruby.L1Cache_Controller.S_evict.Stallmandatory_in::total          689                      
system.ruby.L1Cache_Controller.S_store.Progress |       33016     41.33%     41.33% |       16748     20.97%     62.30% |       19921     24.94%     87.24% |       10194     12.76%    100.00%
system.ruby.L1Cache_Controller.S_store.Progress::total        79879                      
system.ruby.L1Cache_Controller.S_store.Stallfwdfrom_in |           3     60.00%     60.00% |           2     40.00%    100.00% |           0      0.00%    100.00% |           0      0.00%    100.00%
system.ruby.L1Cache_Controller.S_store.Stallfwdfrom_in::total            5                      
system.ruby.L1Cache_Controller.SloadSEvent |   413873591     26.13%     26.13% |   388378753     24.52%     50.65% |   389128019     24.57%     75.21% |   392617794     24.79%    100.00%
system.ruby.L1Cache_Controller.SloadSEvent::total   1583998157                      
system.ruby.L1Cache_Controller.Stallfwdfrom_in |           5     55.56%     55.56% |           4     44.44%    100.00% |           0      0.00%    100.00% |           0      0.00%    100.00%
system.ruby.L1Cache_Controller.Stallfwdfrom_in::total            9                      
system.ruby.L1Cache_Controller.Stallmandatory_in |         603     67.83%     67.83% |          86      9.67%     77.50% |         163     18.34%     95.84% |          37      4.16%    100.00%
system.ruby.L1Cache_Controller.Stallmandatory_in::total          889                      
system.ruby.L1Cache_Controller.allocI_load |      535830     27.73%     27.73% |      442046     22.88%     50.61% |      483810     25.04%     75.66% |      470306     24.34%    100.00%
system.ruby.L1Cache_Controller.allocI_load::total      1931992                      
system.ruby.L1Cache_Controller.allocI_store |       33240     25.35%     25.35% |       24169     18.43%     43.79% |       32656     24.91%     68.70% |       41039     31.30%    100.00%
system.ruby.L1Cache_Controller.allocI_store::total       131104                      
system.ruby.L1Cache_Controller.allocTBE  |      599528     28.05%     28.05% |      481947     22.55%     50.60% |      535458     25.05%     75.65% |      520535     24.35%    100.00%
system.ruby.L1Cache_Controller.allocTBE::total      2137468                      
system.ruby.L1Cache_Controller.deallocTBE |        3104     80.08%     80.08% |         260      6.71%     86.79% |         335      8.64%     95.43% |         177      4.57%    100.00%
system.ruby.L1Cache_Controller.deallocTBE::total         3876                      
system.ruby.L1Cache_Controller.deallocfwdfrom_in |      568054     27.59%     27.59% |      465201     22.59%     50.18% |      515444     25.03%     75.22% |      510326     24.78%    100.00%
system.ruby.L1Cache_Controller.deallocfwdfrom_in::total      2059025                      
system.ruby.L1Cache_Controller.externalloadSrespfrom_in |      535830     27.73%     27.73% |      442046     22.88%     50.61% |      483810     25.04%     75.66% |      470306     24.34%    100.00%
system.ruby.L1Cache_Controller.externalloadSrespfrom_in::total      1931992                      
system.ruby.L1Cache_Controller.externalstoreMrespfrom_in |       61610     29.96%     29.96% |       40655     19.77%     49.72% |       52335     25.45%     75.17% |       51071     24.83%    100.00%
system.ruby.L1Cache_Controller.externalstoreMrespfrom_in::total       205671                      
system.ruby.LD.hit_latency_hist_seqr::bucket_size            1                      
system.ruby.LD.hit_latency_hist_seqr::max_bucket            9                      
system.ruby.LD.hit_latency_hist_seqr::samples    318882477                      
system.ruby.LD.hit_latency_hist_seqr     |   318882477    100.00%    100.00% |           0      0.00%    100.00% |           0      0.00%    100.00% |           0      0.00%    100.00% |           0      0.00%    100.00% |           0      0.00%    100.00% |           0      0.00%    100.00% |           0      0.00%    100.00% |           0      0.00%    100.00% |           0      0.00%    100.00%
system.ruby.LD.hit_latency_hist_seqr::total    318882477                      
system.ruby.LD.latency_hist_seqr::bucket_size            1                      
system.ruby.LD.latency_hist_seqr::max_bucket            9                      
system.ruby.LD.latency_hist_seqr::samples    320204035                      
system.ruby.LD.latency_hist_seqr         |   320204035    100.00%    100.00% |           0      0.00%    100.00% |           0      0.00%    100.00% |           0      0.00%    100.00% |           0      0.00%    100.00% |           0      0.00%    100.00% |           0      0.00%    100.00% |           0      0.00%    100.00% |           0      0.00%    100.00% |           0      0.00%    100.00%
system.ruby.LD.latency_hist_seqr::total     320204035                      
system.ruby.LD.miss_latency_hist_seqr::bucket_size            1                      
system.ruby.LD.miss_latency_hist_seqr::max_bucket            9                      
system.ruby.LD.miss_latency_hist_seqr::samples      1321558                      
system.ruby.LD.miss_latency_hist_seqr    |     1321558    100.00%    100.00% |           0      0.00%    100.00% |           0      0.00%    100.00% |           0      0.00%    100.00% |           0      0.00%    100.00% |           0      0.00%    100.00% |           0      0.00%    100.00% |           0      0.00%    100.00% |           0      0.00%    100.00% |           0      0.00%    100.00%
system.ruby.LD.miss_latency_hist_seqr::total      1321558                      
system.ruby.Locked_RMW_Read.hit_latency_hist_seqr::bucket_size            1                      
system.ruby.Locked_RMW_Read.hit_latency_hist_seqr::max_bucket            9                      
system.ruby.Locked_RMW_Read.hit_latency_hist_seqr::samples        20046                      
system.ruby.Locked_RMW_Read.hit_latency_hist_seqr |       20046    100.00%    100.00% |           0      0.00%    100.00% |           0      0.00%    100.00% |           0      0.00%    100.00% |           0      0.00%    100.00% |           0      0.00%    100.00% |           0      0.00%    100.00% |           0      0.00%    100.00% |           0      0.00%    100.00% |           0      0.00%    100.00%
system.ruby.Locked_RMW_Read.hit_latency_hist_seqr::total        20046                      
system.ruby.Locked_RMW_Read.latency_hist_seqr::bucket_size            1                      
system.ruby.Locked_RMW_Read.latency_hist_seqr::max_bucket            9                      
system.ruby.Locked_RMW_Read.latency_hist_seqr::samples        25284                      
system.ruby.Locked_RMW_Read.latency_hist_seqr |       25284    100.00%    100.00% |           0      0.00%    100.00% |           0      0.00%    100.00% |           0      0.00%    100.00% |           0      0.00%    100.00% |           0      0.00%    100.00% |           0      0.00%    100.00% |           0      0.00%    100.00% |           0      0.00%    100.00% |           0      0.00%    100.00%
system.ruby.Locked_RMW_Read.latency_hist_seqr::total        25284                      
system.ruby.Locked_RMW_Read.miss_latency_hist_seqr::bucket_size            1                      
system.ruby.Locked_RMW_Read.miss_latency_hist_seqr::max_bucket            9                      
system.ruby.Locked_RMW_Read.miss_latency_hist_seqr::samples         5238                      
system.ruby.Locked_RMW_Read.miss_latency_hist_seqr |        5238    100.00%    100.00% |           0      0.00%    100.00% |           0      0.00%    100.00% |           0      0.00%    100.00% |           0      0.00%    100.00% |           0      0.00%    100.00% |           0      0.00%    100.00% |           0      0.00%    100.00% |           0      0.00%    100.00% |           0      0.00%    100.00%
system.ruby.Locked_RMW_Read.miss_latency_hist_seqr::total         5238                      
system.ruby.Locked_RMW_Write.hit_latency_hist_seqr::bucket_size            1                      
system.ruby.Locked_RMW_Write.hit_latency_hist_seqr::max_bucket            9                      
system.ruby.Locked_RMW_Write.hit_latency_hist_seqr::samples        25284                      
system.ruby.Locked_RMW_Write.hit_latency_hist_seqr |       25284    100.00%    100.00% |           0      0.00%    100.00% |           0      0.00%    100.00% |           0      0.00%    100.00% |           0      0.00%    100.00% |           0      0.00%    100.00% |           0      0.00%    100.00% |           0      0.00%    100.00% |           0      0.00%    100.00% |           0      0.00%    100.00%
system.ruby.Locked_RMW_Write.hit_latency_hist_seqr::total        25284                      
system.ruby.Locked_RMW_Write.latency_hist_seqr::bucket_size            1                      
system.ruby.Locked_RMW_Write.latency_hist_seqr::max_bucket            9                      
system.ruby.Locked_RMW_Write.latency_hist_seqr::samples        25284                      
system.ruby.Locked_RMW_Write.latency_hist_seqr |       25284    100.00%    100.00% |           0      0.00%    100.00% |           0      0.00%    100.00% |           0      0.00%    100.00% |           0      0.00%    100.00% |           0      0.00%    100.00% |           0      0.00%    100.00% |           0      0.00%    100.00% |           0      0.00%    100.00% |           0      0.00%    100.00%
system.ruby.Locked_RMW_Write.latency_hist_seqr::total        25284                      
system.ruby.RMW_Read.hit_latency_hist_seqr::bucket_size            1                      
system.ruby.RMW_Read.hit_latency_hist_seqr::max_bucket            9                      
system.ruby.RMW_Read.hit_latency_hist_seqr::samples      1979466                      
system.ruby.RMW_Read.hit_latency_hist_seqr |     1979466    100.00%    100.00% |           0      0.00%    100.00% |           0      0.00%    100.00% |           0      0.00%    100.00% |           0      0.00%    100.00% |           0      0.00%    100.00% |           0      0.00%    100.00% |           0      0.00%    100.00% |           0      0.00%    100.00% |           0      0.00%    100.00%
system.ruby.RMW_Read.hit_latency_hist_seqr::total      1979466                      
system.ruby.RMW_Read.latency_hist_seqr::bucket_size            1                      
system.ruby.RMW_Read.latency_hist_seqr::max_bucket            9                      
system.ruby.RMW_Read.latency_hist_seqr::samples      1996648                      
system.ruby.RMW_Read.latency_hist_seqr   |     1996648    100.00%    100.00% |           0      0.00%    100.00% |           0      0.00%    100.00% |           0      0.00%    100.00% |           0      0.00%    100.00% |           0      0.00%    100.00% |           0      0.00%    100.00% |           0      0.00%    100.00% |           0      0.00%    100.00% |           0      0.00%    100.00%
system.ruby.RMW_Read.latency_hist_seqr::total      1996648                      
system.ruby.RMW_Read.miss_latency_hist_seqr::bucket_size            1                      
system.ruby.RMW_Read.miss_latency_hist_seqr::max_bucket            9                      
system.ruby.RMW_Read.miss_latency_hist_seqr::samples        17182                      
system.ruby.RMW_Read.miss_latency_hist_seqr |       17182    100.00%    100.00% |           0      0.00%    100.00% |           0      0.00%    100.00% |           0      0.00%    100.00% |           0      0.00%    100.00% |           0      0.00%    100.00% |           0      0.00%    100.00% |           0      0.00%    100.00% |           0      0.00%    100.00% |           0      0.00%    100.00%
system.ruby.RMW_Read.miss_latency_hist_seqr::total        17182                      
system.ruby.ST.hit_latency_hist_seqr::bucket_size            1                      
system.ruby.ST.hit_latency_hist_seqr::max_bucket            9                      
system.ruby.ST.hit_latency_hist_seqr::samples    110838645                      
system.ruby.ST.hit_latency_hist_seqr     |   110838645    100.00%    100.00% |           0      0.00%    100.00% |           0      0.00%    100.00% |           0      0.00%    100.00% |           0      0.00%    100.00% |           0      0.00%    100.00% |           0      0.00%    100.00% |           0      0.00%    100.00% |           0      0.00%    100.00% |           0      0.00%    100.00%
system.ruby.ST.hit_latency_hist_seqr::total    110838645                      
system.ruby.ST.latency_hist_seqr::bucket_size            1                      
system.ruby.ST.latency_hist_seqr::max_bucket            9                      
system.ruby.ST.latency_hist_seqr::samples    111021896                      
system.ruby.ST.latency_hist_seqr         |   111021896    100.00%    100.00% |           0      0.00%    100.00% |           0      0.00%    100.00% |           0      0.00%    100.00% |           0      0.00%    100.00% |           0      0.00%    100.00% |           0      0.00%    100.00% |           0      0.00%    100.00% |           0      0.00%    100.00% |           0      0.00%    100.00%
system.ruby.ST.latency_hist_seqr::total     111021896                      
system.ruby.ST.miss_latency_hist_seqr::bucket_size            1                      
system.ruby.ST.miss_latency_hist_seqr::max_bucket            9                      
system.ruby.ST.miss_latency_hist_seqr::samples       183251                      
system.ruby.ST.miss_latency_hist_seqr    |      183251    100.00%    100.00% |           0      0.00%    100.00% |           0      0.00%    100.00% |           0      0.00%    100.00% |           0      0.00%    100.00% |           0      0.00%    100.00% |           0      0.00%    100.00% |           0      0.00%    100.00% |           0      0.00%    100.00% |           0      0.00%    100.00%
system.ruby.ST.miss_latency_hist_seqr::total       183251                      
system.ruby.dir_cntrl0.fwdFrom.avg_buf_msgs     0.002755                       # Average number of messages in buffer
system.ruby.dir_cntrl0.fwdFrom.avg_stall_time  2999.924217                       # Average number of cycles messages are stalled in this MB
system.ruby.dir_cntrl0.reqTo.avg_buf_msgs     0.000935                       # Average number of messages in buffer
system.ruby.dir_cntrl0.reqTo.avg_stall_time  4282.527305                       # Average number of cycles messages are stalled in this MB
system.ruby.dir_cntrl0.requestToMemory.avg_buf_msgs     0.000522                       # Average number of messages in buffer
system.ruby.dir_cntrl0.requestToMemory.avg_stall_time   499.999995                       # Average number of cycles messages are stalled in this MB
system.ruby.dir_cntrl0.respFrom.avg_buf_msgs     0.002875                       # Average number of messages in buffer
system.ruby.dir_cntrl0.respFrom.avg_stall_time  3001.645418                       # Average number of cycles messages are stalled in this MB
system.ruby.dir_cntrl0.respTo.avg_buf_msgs     0.000001                       # Average number of messages in buffer
system.ruby.dir_cntrl0.respTo.avg_stall_time 23644.505708                       # Average number of cycles messages are stalled in this MB
system.ruby.dir_cntrl0.responseFromMemory.avg_buf_msgs     0.000522                       # Average number of messages in buffer
system.ruby.dir_cntrl0.responseFromMemory.avg_stall_time   499.999922                       # Average number of cycles messages are stalled in this MB
system.ruby.dir_cntrl1.fwdFrom.avg_buf_msgs     0.002770                       # Average number of messages in buffer
system.ruby.dir_cntrl1.fwdFrom.avg_stall_time  2999.911263                       # Average number of cycles messages are stalled in this MB
system.ruby.dir_cntrl1.reqTo.avg_buf_msgs     0.000941                       # Average number of messages in buffer
system.ruby.dir_cntrl1.reqTo.avg_stall_time  4340.782001                       # Average number of cycles messages are stalled in this MB
system.ruby.dir_cntrl1.requestToMemory.avg_buf_msgs     0.000519                       # Average number of messages in buffer
system.ruby.dir_cntrl1.requestToMemory.avg_stall_time   499.999903                       # Average number of cycles messages are stalled in this MB
system.ruby.dir_cntrl1.respFrom.avg_buf_msgs     0.002889                       # Average number of messages in buffer
system.ruby.dir_cntrl1.respFrom.avg_stall_time  3001.960922                       # Average number of cycles messages are stalled in this MB
system.ruby.dir_cntrl1.respTo.avg_buf_msgs     0.000001                       # Average number of messages in buffer
system.ruby.dir_cntrl1.respTo.avg_stall_time 24588.491809                       # Average number of cycles messages are stalled in this MB
system.ruby.dir_cntrl1.responseFromMemory.avg_buf_msgs     0.000519                       # Average number of messages in buffer
system.ruby.dir_cntrl1.responseFromMemory.avg_stall_time   499.999830                       # Average number of cycles messages are stalled in this MB
system.ruby.dir_cntrl2.fwdFrom.avg_buf_msgs     0.002591                       # Average number of messages in buffer
system.ruby.dir_cntrl2.fwdFrom.avg_stall_time  2999.950582                       # Average number of cycles messages are stalled in this MB
system.ruby.dir_cntrl2.reqTo.avg_buf_msgs     0.000883                       # Average number of messages in buffer
system.ruby.dir_cntrl2.reqTo.avg_stall_time  4324.112020                       # Average number of cycles messages are stalled in this MB
system.ruby.dir_cntrl2.requestToMemory.avg_buf_msgs     0.000494                       # Average number of messages in buffer
system.ruby.dir_cntrl2.requestToMemory.avg_stall_time   499.999903                       # Average number of cycles messages are stalled in this MB
system.ruby.dir_cntrl2.respFrom.avg_buf_msgs     0.002723                       # Average number of messages in buffer
system.ruby.dir_cntrl2.respFrom.avg_stall_time  3002.003491                       # Average number of cycles messages are stalled in this MB
system.ruby.dir_cntrl2.respTo.avg_buf_msgs     0.000001                       # Average number of messages in buffer
system.ruby.dir_cntrl2.respTo.avg_stall_time 24600.710330                       # Average number of cycles messages are stalled in this MB
system.ruby.dir_cntrl2.responseFromMemory.avg_buf_msgs     0.000494                       # Average number of messages in buffer
system.ruby.dir_cntrl2.responseFromMemory.avg_stall_time   499.999830                       # Average number of cycles messages are stalled in this MB
system.ruby.dir_cntrl3.fwdFrom.avg_buf_msgs     0.002657                       # Average number of messages in buffer
system.ruby.dir_cntrl3.fwdFrom.avg_stall_time  2999.960130                       # Average number of cycles messages are stalled in this MB
system.ruby.dir_cntrl3.reqTo.avg_buf_msgs     0.000906                       # Average number of messages in buffer
system.ruby.dir_cntrl3.reqTo.avg_stall_time  4406.877656                       # Average number of cycles messages are stalled in this MB
system.ruby.dir_cntrl3.requestToMemory.avg_buf_msgs     0.000506                       # Average number of messages in buffer
system.ruby.dir_cntrl3.requestToMemory.avg_stall_time   499.999995                       # Average number of cycles messages are stalled in this MB
system.ruby.dir_cntrl3.respFrom.avg_buf_msgs     0.002793                       # Average number of messages in buffer
system.ruby.dir_cntrl3.respFrom.avg_stall_time  3002.778575                       # Average number of cycles messages are stalled in this MB
system.ruby.dir_cntrl3.respTo.avg_buf_msgs     0.000001                       # Average number of messages in buffer
system.ruby.dir_cntrl3.respTo.avg_stall_time 25540.502869                       # Average number of cycles messages are stalled in this MB
system.ruby.dir_cntrl3.responseFromMemory.avg_buf_msgs     0.000506                       # Average number of messages in buffer
system.ruby.dir_cntrl3.responseFromMemory.avg_stall_time   499.999922                       # Average number of cycles messages are stalled in this MB
system.ruby.dma_cntrl0.cache.demand_accesses            0                       # Number of cache demand accesses
system.ruby.dma_cntrl0.cache.demand_hits            0                       # Number of cache demand hits
system.ruby.dma_cntrl0.cache.demand_misses            0                       # Number of cache demand misses
system.ruby.dma_cntrl0.fully_busy_cycles        22626                       # cycles for which number of transistions == max transitions
system.ruby.dma_cntrl0.fwdFrom.avg_buf_msgs     0.000002                       # Average number of messages in buffer
system.ruby.dma_cntrl0.fwdFrom.avg_stall_time  3630.407366                       # Average number of cycles messages are stalled in this MB
system.ruby.dma_cntrl0.mandatoryQueue.avg_buf_msgs     0.001332                       # Average number of messages in buffer
system.ruby.dma_cntrl0.mandatoryQueue.avg_stall_time 411392.426634                       # Average number of cycles messages are stalled in this MB
system.ruby.dma_cntrl0.reqTo.avg_buf_msgs     0.002421                       # Average number of messages in buffer
system.ruby.dma_cntrl0.reqTo.avg_stall_time 16178.033298                       # Average number of cycles messages are stalled in this MB
system.ruby.dma_cntrl0.respFrom.avg_buf_msgs     0.000003                       # Average number of messages in buffer
system.ruby.dma_cntrl0.respFrom.avg_stall_time 74233.252714                       # Average number of cycles messages are stalled in this MB
system.ruby.dma_cntrl0.respTo.avg_buf_msgs     0.000000                       # Average number of messages in buffer
system.ruby.dma_cntrl0.respTo.avg_stall_time   659.640420                       # Average number of cycles messages are stalled in this MB
system.ruby.hit_latency_hist_seqr::bucket_size            1                      
system.ruby.hit_latency_hist_seqr::max_bucket            9                      
system.ruby.hit_latency_hist_seqr::samples   1968221697                      
system.ruby.hit_latency_hist_seqr        |  1968221697    100.00%    100.00% |           0      0.00%    100.00% |           0      0.00%    100.00% |           0      0.00%    100.00% |           0      0.00%    100.00% |           0      0.00%    100.00% |           0      0.00%    100.00% |           0      0.00%    100.00% |           0      0.00%    100.00% |           0      0.00%    100.00%
system.ruby.hit_latency_hist_seqr::total   1968221697                      
system.ruby.io_controller.cache.demand_accesses            0                       # Number of cache demand accesses
system.ruby.io_controller.cache.demand_hits            0                       # Number of cache demand hits
system.ruby.io_controller.cache.demand_misses            0                       # Number of cache demand misses
system.ruby.l1_cntrl0.cache.demand_accesses            0                       # Number of cache demand accesses
system.ruby.l1_cntrl0.cache.demand_hits             0                       # Number of cache demand hits
system.ruby.l1_cntrl0.cache.demand_misses            0                       # Number of cache demand misses
system.ruby.l1_cntrl0.fully_busy_cycles             1                       # cycles for which number of transistions == max transitions
system.ruby.l1_cntrl0.fwdFrom.avg_buf_msgs     0.000498                       # Average number of messages in buffer
system.ruby.l1_cntrl0.fwdFrom.avg_stall_time  6490.612899                       # Average number of cycles messages are stalled in this MB
system.ruby.l1_cntrl0.mandatoryQueue.avg_buf_msgs     0.452713                       # Average number of messages in buffer
system.ruby.l1_cntrl0.mandatoryQueue.avg_stall_time  1117.177305                       # Average number of cycles messages are stalled in this MB
system.ruby.l1_cntrl0.reqTo.avg_buf_msgs     0.001015                       # Average number of messages in buffer
system.ruby.l1_cntrl0.reqTo.avg_stall_time   499.999999                       # Average number of cycles messages are stalled in this MB
system.ruby.l1_cntrl0.respFrom.avg_buf_msgs     0.000526                       # Average number of messages in buffer
system.ruby.l1_cntrl0.respFrom.avg_stall_time 16535.386183                       # Average number of cycles messages are stalled in this MB
system.ruby.l1_cntrl0.respTo.avg_buf_msgs     0.000008                       # Average number of messages in buffer
system.ruby.l1_cntrl0.respTo.avg_stall_time   971.476832                       # Average number of cycles messages are stalled in this MB
system.ruby.l1_cntrl1.cache.demand_accesses            0                       # Number of cache demand accesses
system.ruby.l1_cntrl1.cache.demand_hits             0                       # Number of cache demand hits
system.ruby.l1_cntrl1.cache.demand_misses            0                       # Number of cache demand misses
system.ruby.l1_cntrl1.fwdFrom.avg_buf_msgs     0.998397                       # Average number of messages in buffer
system.ruby.l1_cntrl1.fwdFrom.avg_stall_time  6503.767721                       # Average number of cycles messages are stalled in this MB
system.ruby.l1_cntrl1.mandatoryQueue.avg_buf_msgs     0.430758                       # Average number of messages in buffer
system.ruby.l1_cntrl1.mandatoryQueue.avg_stall_time  1016.239855                       # Average number of cycles messages are stalled in this MB
system.ruby.l1_cntrl1.reqTo.avg_buf_msgs     0.000824                       # Average number of messages in buffer
system.ruby.l1_cntrl1.reqTo.avg_stall_time   499.999999                       # Average number of cycles messages are stalled in this MB
system.ruby.l1_cntrl1.respFrom.avg_buf_msgs     0.000421                       # Average number of messages in buffer
system.ruby.l1_cntrl1.respFrom.avg_stall_time 16640.629829                       # Average number of cycles messages are stalled in this MB
system.ruby.l1_cntrl1.respTo.avg_buf_msgs     0.000003                       # Average number of messages in buffer
system.ruby.l1_cntrl1.respTo.avg_stall_time   513.746041                       # Average number of cycles messages are stalled in this MB
system.ruby.l1_cntrl2.cache.demand_accesses            0                       # Number of cache demand accesses
system.ruby.l1_cntrl2.cache.demand_hits             0                       # Number of cache demand hits
system.ruby.l1_cntrl2.cache.demand_misses            0                       # Number of cache demand misses
system.ruby.l1_cntrl2.fully_busy_cycles             2                       # cycles for which number of transistions == max transitions
system.ruby.l1_cntrl2.fwdFrom.avg_buf_msgs     0.000449                       # Average number of messages in buffer
system.ruby.l1_cntrl2.fwdFrom.avg_stall_time  6496.577792                       # Average number of cycles messages are stalled in this MB
system.ruby.l1_cntrl2.mandatoryQueue.avg_buf_msgs     0.435705                       # Average number of messages in buffer
system.ruby.l1_cntrl2.mandatoryQueue.avg_stall_time  1072.497406                       # Average number of cycles messages are stalled in this MB
system.ruby.l1_cntrl2.reqTo.avg_buf_msgs     0.000913                       # Average number of messages in buffer
system.ruby.l1_cntrl2.reqTo.avg_stall_time   500.000111                       # Average number of cycles messages are stalled in this MB
system.ruby.l1_cntrl2.respFrom.avg_buf_msgs     0.000467                       # Average number of messages in buffer
system.ruby.l1_cntrl2.respFrom.avg_stall_time 16451.006036                       # Average number of cycles messages are stalled in this MB
system.ruby.l1_cntrl2.respTo.avg_buf_msgs     0.000003                       # Average number of messages in buffer
system.ruby.l1_cntrl2.respTo.avg_stall_time   509.072481                       # Average number of cycles messages are stalled in this MB
system.ruby.l1_cntrl3.cache.demand_accesses            0                       # Number of cache demand accesses
system.ruby.l1_cntrl3.cache.demand_hits             0                       # Number of cache demand hits
system.ruby.l1_cntrl3.cache.demand_misses            0                       # Number of cache demand misses
system.ruby.l1_cntrl3.fully_busy_cycles             2                       # cycles for which number of transistions == max transitions
system.ruby.l1_cntrl3.fwdFrom.avg_buf_msgs     0.000445                       # Average number of messages in buffer
system.ruby.l1_cntrl3.fwdFrom.avg_stall_time  6550.470355                       # Average number of cycles messages are stalled in this MB
system.ruby.l1_cntrl3.mandatoryQueue.avg_buf_msgs     0.438894                       # Average number of messages in buffer
system.ruby.l1_cntrl3.mandatoryQueue.avg_stall_time  1056.780797                       # Average number of cycles messages are stalled in this MB
system.ruby.l1_cntrl3.reqTo.avg_buf_msgs     0.000896                       # Average number of messages in buffer
system.ruby.l1_cntrl3.reqTo.avg_stall_time   499.752771                       # Average number of cycles messages are stalled in this MB
system.ruby.l1_cntrl3.respFrom.avg_buf_msgs     0.000454                       # Average number of messages in buffer
system.ruby.l1_cntrl3.respFrom.avg_stall_time 16496.648109                       # Average number of cycles messages are stalled in this MB
system.ruby.l1_cntrl3.respTo.avg_buf_msgs     0.000003                       # Average number of messages in buffer
system.ruby.l1_cntrl3.respTo.avg_stall_time   508.368584                       # Average number of cycles messages are stalled in this MB
system.ruby.latency_hist_seqr::bucket_size            1                      
system.ruby.latency_hist_seqr::max_bucket            9                      
system.ruby.latency_hist_seqr::samples     1970359360                      
system.ruby.latency_hist_seqr            |  1970359360    100.00%    100.00% |           0      0.00%    100.00% |           0      0.00%    100.00% |           0      0.00%    100.00% |           0      0.00%    100.00% |           0      0.00%    100.00% |           0      0.00%    100.00% |           0      0.00%    100.00% |           0      0.00%    100.00% |           0      0.00%    100.00%
system.ruby.latency_hist_seqr::total       1970359360                      
system.ruby.miss_latency_hist_seqr::bucket_size            1                      
system.ruby.miss_latency_hist_seqr::max_bucket            9                      
system.ruby.miss_latency_hist_seqr::samples      2137663                      
system.ruby.miss_latency_hist_seqr       |     2137663    100.00%    100.00% |           0      0.00%    100.00% |           0      0.00%    100.00% |           0      0.00%    100.00% |           0      0.00%    100.00% |           0      0.00%    100.00% |           0      0.00%    100.00% |           0      0.00%    100.00% |           0      0.00%    100.00% |           0      0.00%    100.00%
system.ruby.miss_latency_hist_seqr::total      2137663                      
system.ruby.network.average_flit_latency    16.834233                      
system.ruby.network.average_flit_network_latency    11.771803                      
system.ruby.network.average_flit_queueing_latency     5.062431                      
system.ruby.network.average_flit_vnet_latency |   15.225904                       |    5.004756                       |    7.157935                       |         nan                       |         nan                       |         nan                       |         nan                       |         nan                      
system.ruby.network.average_flit_vqueue_latency |    6.041057                       |    6.000000                       |    2.577247                       |         nan                       |         nan                       |         nan                       |         nan                       |         nan                      
system.ruby.network.average_hops             1.001165                      
system.ruby.network.average_packet_latency    14.504021                      
system.ruby.network.average_packet_network_latency    10.660303                      
system.ruby.network.average_packet_queueing_latency     3.843718                      
system.ruby.network.average_packet_vnet_latency |   25.168051                       |    5.004756                       |    6.000652                       |         nan                       |         nan                       |         nan                       |         nan                       |         nan                      
system.ruby.network.average_packet_vqueue_latency |    6.027389                       |    6.000000                       |    1.661425                       |         nan                       |         nan                       |         nan                       |         nan                       |         nan                      
system.ruby.network.avg_link_utilization     0.046534                      
system.ruby.network.avg_vc_load          |    0.020989     45.10%     45.10% |    0.002375      5.10%     50.21% |    0.002344      5.04%     55.25% |    0.002341      5.03%     60.28% |    0.004046      8.69%     68.97% |    0.000451      0.97%     69.94% |    0.000450      0.97%     70.91% |    0.000450      0.97%     71.87% |    0.009796     21.05%     92.93% |    0.001111      2.39%     95.31% |    0.001090      2.34%     97.66% |    0.001091      2.34%    100.00% |           0      0.00%    100.00% |           0      0.00%    100.00% |           0      0.00%    100.00% |           0      0.00%    100.00% |           0      0.00%    100.00% |           0      0.00%    100.00% |           0      0.00%    100.00% |           0      0.00%    100.00% |           0      0.00%    100.00% |           0      0.00%    100.00% |           0      0.00%    100.00% |           0      0.00%    100.00% |           0      0.00%    100.00% |           0      0.00%    100.00% |           0      0.00%    100.00% |           0      0.00%    100.00% |           0      0.00%    100.00% |           0      0.00%    100.00% |           0      0.00%    100.00% |           0      0.00%    100.00%
system.ruby.network.avg_vc_load::total       0.046534                      
system.ruby.network.ext_in_link_utilization     17802520                      
system.ruby.network.ext_out_link_utilization     17802520                      
system.ruby.network.flit_network_latency |   163404308                       |    10336222                       |    35827226                       |           0                       |           0                       |           0                       |           0                       |           0                      
system.ruby.network.flit_queueing_latency |    64832584                       |    12391681                       |    12899756                       |           0                       |           0                       |           0                       |           0                       |           0                      
system.ruby.network.flits_injected       |    10731994     60.28%     60.28% |     2065280     11.60%     71.88% |     5005246     28.12%    100.00% |           0      0.00%    100.00% |           0      0.00%    100.00% |           0      0.00%    100.00% |           0      0.00%    100.00% |           0      0.00%    100.00%
system.ruby.network.flits_injected::total     17802520                      
system.ruby.network.flits_received       |    10731994     60.28%     60.28% |     2065280     11.60%     71.88% |     5005246     28.12%    100.00% |           0      0.00%    100.00% |           0      0.00%    100.00% |           0      0.00%    100.00% |           0      0.00%    100.00% |           0      0.00%    100.00%
system.ruby.network.flits_received::total     17802520                      
system.ruby.network.int_link_utilization     17823257                      
system.ruby.network.packet_network_latency |    54167534                       |    10336222                       |    25168282                       |           0                       |           0                       |           0                       |           0                       |           0                      
system.ruby.network.packet_queueing_latency |    12972352                       |    12391681                       |     6968444                       |           0                       |           0                       |           0                       |           0                       |           0                      
system.ruby.network.packets_injected     |     2152234     25.59%     25.59% |     2065280     24.55%     50.14% |     4194258     49.86%    100.00% |           0      0.00%    100.00% |           0      0.00%    100.00% |           0      0.00%    100.00% |           0      0.00%    100.00% |           0      0.00%    100.00%
system.ruby.network.packets_injected::total      8411772                      
system.ruby.network.packets_received     |     2152234     25.59%     25.59% |     2065280     24.55%     50.14% |     4194258     49.86%    100.00% |           0      0.00%    100.00% |           0      0.00%    100.00% |           0      0.00%    100.00% |           0      0.00%    100.00% |           0      0.00%    100.00%
system.ruby.network.packets_received::total      8411772                      
system.ruby.network.routers0.buffer_reads      9354681                      
system.ruby.network.routers0.buffer_writes      9354681                      
system.ruby.network.routers0.crossbar_activity      9354681                      
system.ruby.network.routers0.sw_input_arbiter_activity      9364718                      
system.ruby.network.routers0.sw_output_arbiter_activity      9354681                      
system.ruby.network.routers1.buffer_reads      8672995                      
system.ruby.network.routers1.buffer_writes      8672995                      
system.ruby.network.routers1.crossbar_activity      8672995                      
system.ruby.network.routers1.sw_input_arbiter_activity      8675805                      
system.ruby.network.routers1.sw_output_arbiter_activity      8672995                      
system.ruby.network.routers2.buffer_reads      8878615                      
system.ruby.network.routers2.buffer_writes      8878615                      
system.ruby.network.routers2.crossbar_activity      8878615                      
system.ruby.network.routers2.sw_input_arbiter_activity      8882695                      
system.ruby.network.routers2.sw_output_arbiter_activity      8878615                      
system.ruby.network.routers3.buffer_reads      8719486                      
system.ruby.network.routers3.buffer_writes      8719486                      
system.ruby.network.routers3.crossbar_activity      8719486                      
system.ruby.network.routers3.sw_input_arbiter_activity      8722650                      
system.ruby.network.routers3.sw_output_arbiter_activity      8719486                      
system.ruby.outstanding_req_hist_seqr::bucket_size            1                      
system.ruby.outstanding_req_hist_seqr::max_bucket            9                      
system.ruby.outstanding_req_hist_seqr::samples   1970359360                      
system.ruby.outstanding_req_hist_seqr::mean     1.002476                      
system.ruby.outstanding_req_hist_seqr::gmean     1.001717                      
system.ruby.outstanding_req_hist_seqr::stdev     0.049693                      
system.ruby.outstanding_req_hist_seqr    |           0      0.00%      0.00% |  1965481729     99.75%     99.75% |     4877631      0.25%    100.00% |           0      0.00%    100.00% |           0      0.00%    100.00% |           0      0.00%    100.00% |           0      0.00%    100.00% |           0      0.00%    100.00% |           0      0.00%    100.00% |           0      0.00%    100.00%
system.ruby.outstanding_req_hist_seqr::total   1970359360                      
system.switch_cpus0.Branches                  3541875                       # Number of branches fetched
system.switch_cpus0.committedInsts          262305170                       # Number of instructions committed
system.switch_cpus0.committedOps            441873339                       # Number of ops (including micro ops) committed
system.switch_cpus0.dtb.rdAccesses           83162019                       # TLB accesses on read requests
system.switch_cpus0.dtb.rdMisses                65619                       # TLB misses on read requests
system.switch_cpus0.dtb.wrAccesses           28127671                       # TLB accesses on write requests
system.switch_cpus0.dtb.wrMisses                 3676                       # TLB misses on write requests
system.switch_cpus0.idle_fraction            0.053054                       # Percentage of idle cycles
system.switch_cpus0.itb.rdAccesses                  0                       # TLB accesses on read requests
system.switch_cpus0.itb.rdMisses                    0                       # TLB misses on read requests
system.switch_cpus0.itb.wrAccesses          394942754                       # TLB accesses on write requests
system.switch_cpus0.itb.wrMisses                 3274                       # TLB misses on write requests
system.switch_cpus0.kern.inst.arm                   0                       # number of arm instructions executed
system.switch_cpus0.kern.inst.quiesce               0                       # number of quiesce instructions executed
system.switch_cpus0.not_idle_fraction        0.946946                       # Percentage of non-idle cycles
system.switch_cpus0.numCycles              1146632756                       # number of cpu cycles simulated
system.switch_cpus0.numWorkItemsCompleted            0                       # number of work items this cpu completed
system.switch_cpus0.numWorkItemsStarted             0                       # number of work items this cpu started
system.switch_cpus0.num_busy_cycles      1085799105.033922                       # Number of busy cycles
system.switch_cpus0.num_cc_register_reads    131047350                       # number of times the CC registers were read
system.switch_cpus0.num_cc_register_writes     89001534                       # number of times the CC registers were written
system.switch_cpus0.num_conditional_control_insts      3057718                       # number of instructions that are conditional controls
system.switch_cpus0.num_fp_alu_accesses     346709757                       # Number of float alu accesses
system.switch_cpus0.num_fp_insts            346709757                       # number of float instructions
system.switch_cpus0.num_fp_register_reads    424255789                       # number of times the floating registers were read
system.switch_cpus0.num_fp_register_writes    313375920                       # number of times the floating registers were written
system.switch_cpus0.num_func_calls             141848                       # number of times a function call or return occured
system.switch_cpus0.num_idle_cycles      60833650.966078                       # Number of idle cycles
system.switch_cpus0.num_int_alu_accesses    194742181                       # Number of integer alu accesses
system.switch_cpus0.num_int_insts           194742181                       # number of integer instructions
system.switch_cpus0.num_int_register_reads    475652541                       # number of times the integer registers were read
system.switch_cpus0.num_int_register_writes     89487994                       # number of times the integer registers were written
system.switch_cpus0.num_load_insts           81833073                       # Number of load instructions
system.switch_cpus0.num_mem_refs            109957108                       # number of memory refs
system.switch_cpus0.num_store_insts          28124035                       # Number of store instructions
system.switch_cpus0.num_vec_alu_accesses            0                       # Number of vector alu accesses
system.switch_cpus0.num_vec_insts                   0                       # number of vector instructions
system.switch_cpus0.num_vec_register_reads            0                       # number of times the vector registers were read
system.switch_cpus0.num_vec_register_writes            0                       # number of times the vector registers were written
system.switch_cpus0.op_class::No_OpClass       186803      0.04%      0.04% # Class of executed instruction
system.switch_cpus0.op_class::IntAlu        135648985     30.70%     30.74% # Class of executed instruction
system.switch_cpus0.op_class::IntMult           12956      0.00%     30.74% # Class of executed instruction
system.switch_cpus0.op_class::IntDiv            31050      0.01%     30.75% # Class of executed instruction
system.switch_cpus0.op_class::FloatAdd       92359392     20.90%     51.65% # Class of executed instruction
system.switch_cpus0.op_class::FloatCmp              0      0.00%     51.65% # Class of executed instruction
system.switch_cpus0.op_class::FloatCvt             96      0.00%     51.65% # Class of executed instruction
system.switch_cpus0.op_class::FloatMult             0      0.00%     51.65% # Class of executed instruction
system.switch_cpus0.op_class::FloatMultAcc            0      0.00%     51.65% # Class of executed instruction
system.switch_cpus0.op_class::FloatDiv              0      0.00%     51.65% # Class of executed instruction
system.switch_cpus0.op_class::FloatMisc             0      0.00%     51.65% # Class of executed instruction
system.switch_cpus0.op_class::FloatSqrt             0      0.00%     51.65% # Class of executed instruction
system.switch_cpus0.op_class::SimdAdd               0      0.00%     51.65% # Class of executed instruction
system.switch_cpus0.op_class::SimdAddAcc            0      0.00%     51.65% # Class of executed instruction
system.switch_cpus0.op_class::SimdAlu         3117538      0.71%     52.36% # Class of executed instruction
system.switch_cpus0.op_class::SimdCmp               0      0.00%     52.36% # Class of executed instruction
system.switch_cpus0.op_class::SimdCvt            2400      0.00%     52.36% # Class of executed instruction
system.switch_cpus0.op_class::SimdMisc        3304019      0.75%     53.11% # Class of executed instruction
system.switch_cpus0.op_class::SimdMult              0      0.00%     53.11% # Class of executed instruction
system.switch_cpus0.op_class::SimdMultAcc            0      0.00%     53.11% # Class of executed instruction
system.switch_cpus0.op_class::SimdShift             0      0.00%     53.11% # Class of executed instruction
system.switch_cpus0.op_class::SimdShiftAcc            0      0.00%     53.11% # Class of executed instruction
system.switch_cpus0.op_class::SimdDiv               0      0.00%     53.11% # Class of executed instruction
system.switch_cpus0.op_class::SimdSqrt              0      0.00%     53.11% # Class of executed instruction
system.switch_cpus0.op_class::SimdFloatAdd     23024033      5.21%     58.32% # Class of executed instruction
system.switch_cpus0.op_class::SimdFloatAlu            0      0.00%     58.32% # Class of executed instruction
system.switch_cpus0.op_class::SimdFloatCmp     17698816      4.01%     62.32% # Class of executed instruction
system.switch_cpus0.op_class::SimdFloatCvt      8003500      1.81%     64.13% # Class of executed instruction
system.switch_cpus0.op_class::SimdFloatDiv      2006740      0.45%     64.59% # Class of executed instruction
system.switch_cpus0.op_class::SimdFloatMisc            0      0.00%     64.59% # Class of executed instruction
system.switch_cpus0.op_class::SimdFloatMult     46366335     10.49%     75.08% # Class of executed instruction
system.switch_cpus0.op_class::SimdFloatMultAcc            0      0.00%     75.08% # Class of executed instruction
system.switch_cpus0.op_class::SimdFloatSqrt       153600      0.03%     75.12% # Class of executed instruction
system.switch_cpus0.op_class::SimdReduceAdd            0      0.00%     75.12% # Class of executed instruction
system.switch_cpus0.op_class::SimdReduceAlu            0      0.00%     75.12% # Class of executed instruction
system.switch_cpus0.op_class::SimdReduceCmp            0      0.00%     75.12% # Class of executed instruction
system.switch_cpus0.op_class::SimdFloatReduceAdd            0      0.00%     75.12% # Class of executed instruction
system.switch_cpus0.op_class::SimdFloatReduceCmp            0      0.00%     75.12% # Class of executed instruction
system.switch_cpus0.op_class::SimdAes               0      0.00%     75.12% # Class of executed instruction
system.switch_cpus0.op_class::SimdAesMix            0      0.00%     75.12% # Class of executed instruction
system.switch_cpus0.op_class::SimdSha1Hash            0      0.00%     75.12% # Class of executed instruction
system.switch_cpus0.op_class::SimdSha1Hash2            0      0.00%     75.12% # Class of executed instruction
system.switch_cpus0.op_class::SimdSha256Hash            0      0.00%     75.12% # Class of executed instruction
system.switch_cpus0.op_class::SimdSha256Hash2            0      0.00%     75.12% # Class of executed instruction
system.switch_cpus0.op_class::SimdShaSigma2            0      0.00%     75.12% # Class of executed instruction
system.switch_cpus0.op_class::SimdShaSigma3            0      0.00%     75.12% # Class of executed instruction
system.switch_cpus0.op_class::SimdPredAlu            0      0.00%     75.12% # Class of executed instruction
system.switch_cpus0.op_class::MemRead         8072959      1.83%     76.94% # Class of executed instruction
system.switch_cpus0.op_class::MemWrite        4616937      1.04%     77.99% # Class of executed instruction
system.switch_cpus0.op_class::FloatMemRead     73760114     16.69%     94.68% # Class of executed instruction
system.switch_cpus0.op_class::FloatMemWrite     23507098      5.32%    100.00% # Class of executed instruction
system.switch_cpus0.op_class::IprAccess             0      0.00%    100.00% # Class of executed instruction
system.switch_cpus0.op_class::InstPrefetch            0      0.00%    100.00% # Class of executed instruction
system.switch_cpus0.op_class::total         441873371                       # Class of executed instruction
system.switch_cpus1.Branches                  3425614                       # Number of branches fetched
system.switch_cpus1.committedInsts          251030994                       # Number of instructions committed
system.switch_cpus1.committedOps            421292031                       # Number of ops (including micro ops) committed
[...]
system.mem_ctrls1.llc.ReadReq_avg_miss_latency::total 87465.149954                       # average ReadReq miss latency
system.mem_ctrls1.llc.ReadReq_mshr_misses::.ruby.dir_cntrl1        86573                       # number of ReadReq MSHR misses
system.mem_ctrls1.llc.ReadReq_mshr_misses::total        86573                       # number of ReadReq MSHR misses
system.mem_ctrls1.llc.ReadReq_mshr_miss_latency::.ruby.dir_cntrl1   5799188178                       # number of ReadReq MSHR miss cycles
system.mem_ctrls1.llc.ReadReq_mshr_miss_latency::total   5799188178                       # number of ReadReq MSHR miss cycles
system.mem_ctrls1.llc.ReadReq_mshr_miss_rate::.ruby.dir_cntrl1     0.158211                       # mshr miss rate for ReadReq accesses
system.mem_ctrls1.llc.ReadReq_mshr_miss_rate::total     0.158211                       # mshr miss rate for ReadReq accesses
system.mem_ctrls1.llc.ReadReq_avg_mshr_miss_latency::.ruby.dir_cntrl1 66986.106269                       # average ReadReq mshr miss latency
system.mem_ctrls1.llc.ReadReq_avg_mshr_miss_latency::total 66986.106269                       # average ReadReq mshr miss latency
system.mem_ctrls1.llc.WriteReq_hits::.ruby.dir_cntrl1        48214                       # number of WriteReq hits
system.mem_ctrls1.llc.WriteReq_hits::total        48214                       # number of WriteReq hits
system.mem_ctrls1.llc.WriteReq_accesses::.ruby.dir_cntrl1        48214                       # number of WriteReq accesses(hits+misses)
system.mem_ctrls1.llc.WriteReq_accesses::total        48214                       # number of WriteReq accesses(hits+misses)
system.mem_ctrls1.llc.power_state.pwrStateResidencyTicks::UNDEFINED 109077593355001                       # Cumulative time (in ticks) in various power states
system.mem_ctrls1.llc.tags.tagsinuse     61762.161547                       # Cycle average of tags in use
system.mem_ctrls1.llc.tags.total_refs               0                       # Total number of references to valid blocks.
system.mem_ctrls1.llc.tags.sampled_refs             0                       # Sample count of references to valid blocks.
system.mem_ctrls1.llc.tags.avg_refs               nan                       # Average number of references to valid blocks.
system.mem_ctrls1.llc.tags.warmup_cycle  108503517945500                       # Cycle when the warmup percentage was hit.
system.mem_ctrls1.llc.tags.occ_blocks::.ruby.dir_cntrl1 61762.161547                       # Average occupied blocks per requestor
system.mem_ctrls1.llc.tags.occ_percent::.ruby.dir_cntrl1     0.235604                       # Average percentage of cache occupancy
system.mem_ctrls1.llc.tags.occ_percent::total     0.235604                       # Average percentage of cache occupancy
system.mem_ctrls1.llc.tags.occ_task_id_blocks::1024        86573                       # Occupied blocks per task id
system.mem_ctrls1.llc.tags.age_task_id_blocks_1024::0            8                       # Occupied blocks per task id
system.mem_ctrls1.llc.tags.age_task_id_blocks_1024::2           41                       # Occupied blocks per task id
system.mem_ctrls1.llc.tags.age_task_id_blocks_1024::3          111                       # Occupied blocks per task id
system.mem_ctrls1.llc.tags.age_task_id_blocks_1024::4        86413                       # Occupied blocks per task id
system.mem_ctrls1.llc.tags.occ_task_id_percent::1024     0.330250                       # Percentage of cache occupancy per task id
system.mem_ctrls1.llc.tags.tag_accesses       9613197                       # Number of tag accesses
system.mem_ctrls1.llc.tags.data_accesses       595414                       # Number of data accesses
system.mem_ctrls1.llc.tags.power_state.pwrStateResidencyTicks::UNDEFINED 109077593355001                       # Cumulative time (in ticks) in various power states
system.mem_ctrls1.rank1.actEnergy           270506040                       # Energy for activate commands per rank (pJ)
system.mem_ctrls1.rank1.preEnergy           143777370                       # Energy for precharge commands per rank (pJ)
system.mem_ctrls1.rank1.readEnergy          311089800                       # Energy for read commands per rank (pJ)
system.mem_ctrls1.rank1.writeEnergy                 0                       # Energy for write commands per rank (pJ)
system.mem_ctrls1.rank1.refreshEnergy    45316792560.000008                       # Energy for refresh commands per rank (pJ)
system.mem_ctrls1.rank1.actBackEnergy     59857276620                       # Energy for active background per rank (pJ)
system.mem_ctrls1.rank1.preBackEnergy    170038809120                       # Energy for precharge background per rank (pJ)
system.mem_ctrls1.rank1.actPowerDownEnergy            0                       # Energy for active power-down per rank (pJ)
system.mem_ctrls1.rank1.prePowerDownEnergy            0                       # Energy for precharge power-down per rank (pJ)
system.mem_ctrls1.rank1.selfRefreshEnergy            0                       # Energy for self refresh per rank (pJ)
system.mem_ctrls1.rank1.totalEnergy      275938251510                       # Total energy per rank (pJ)
system.mem_ctrls1.rank1.averagePower       480.665368                       # Core power per rank (mW)
system.mem_ctrls1.rank1.totalIdleTime               0                       # Total Idle time Per DRAM Rank
system.mem_ctrls1.rank1.memoryStateTime::IDLE 441445440002                       # Time in different power states
system.mem_ctrls1.rank1.memoryStateTime::REF  19169540000                       # Time in different power states
system.mem_ctrls1.rank1.memoryStateTime::SREF            0                       # Time in different power states
system.mem_ctrls1.rank1.memoryStateTime::PRE_PDN            0                       # Time in different power states
system.mem_ctrls1.rank1.memoryStateTime::ACT 113460603499                       # Time in different power states
system.mem_ctrls1.rank1.memoryStateTime::ACT_PDN            0                       # Time in different power states
system.mem_ctrls1.rank0.actEnergy           270791640                       # Energy for activate commands per rank (pJ)
system.mem_ctrls1.rank0.preEnergy           143921580                       # Energy for precharge commands per rank (pJ)
system.mem_ctrls1.rank0.readEnergy          307041420                       # Energy for read commands per rank (pJ)
system.mem_ctrls1.rank0.writeEnergy                 0                       # Energy for write commands per rank (pJ)
system.mem_ctrls1.rank0.refreshEnergy    45316792560.000008                       # Energy for refresh commands per rank (pJ)
system.mem_ctrls1.rank0.actBackEnergy     60100575990                       # Energy for active background per rank (pJ)
system.mem_ctrls1.rank0.preBackEnergy    169833966240                       # Energy for precharge background per rank (pJ)
system.mem_ctrls1.rank0.actPowerDownEnergy            0                       # Energy for active power-down per rank (pJ)
system.mem_ctrls1.rank0.prePowerDownEnergy            0                       # Energy for precharge power-down per rank (pJ)
system.mem_ctrls1.rank0.selfRefreshEnergy            0                       # Energy for self refresh per rank (pJ)
system.mem_ctrls1.rank0.totalEnergy      275973089430                       # Total energy per rank (pJ)
system.mem_ctrls1.rank0.averagePower       480.726053                       # Core power per rank (mW)
system.mem_ctrls1.rank0.totalIdleTime               0                       # Total Idle time Per DRAM Rank
system.mem_ctrls1.rank0.memoryStateTime::IDLE 440909140500                       # Time in different power states
system.mem_ctrls1.rank0.memoryStateTime::REF  19169540000                       # Time in different power states
system.mem_ctrls1.rank0.memoryStateTime::SREF            0                       # Time in different power states
system.mem_ctrls1.rank0.memoryStateTime::PRE_PDN            0                       # Time in different power states
system.mem_ctrls1.rank0.memoryStateTime::ACT 113996903001                       # Time in different power states
system.mem_ctrls1.rank0.memoryStateTime::ACT_PDN            0                       # Time in different power states
system.mem_ctrls1.power_state.pwrStateResidencyTicks::UNDEFINED 109077593355001                       # Cumulative time (in ticks) in various power states
system.cpu_voltage_domain.voltage                   1                       # Voltage in Volts
system.iobus.trans_dist::ReadReq                  534                       # Transaction distribution
system.iobus.trans_dist::ReadResp                 534                       # Transaction distribution
system.iobus.trans_dist::WriteReq                2753                       # Transaction distribution
system.iobus.trans_dist::WriteResp               2753                       # Transaction distribution
system.iobus.pkt_count_system.pc.south_bridge.io_apic.int_master::system.ruby.l1_cntrl1.sequencer.pio-slave-port          338                       # Packet count per connected master and slave (bytes)
system.iobus.pkt_count_system.pc.south_bridge.io_apic.int_master::total          338                       # Packet count per connected master and slave (bytes)
system.iobus.pkt_count_system.ruby.l1_cntrl0.sequencer.mem-master-port::system.pc.com_1.pio            6                       # Packet count per connected master and slave (bytes)
system.iobus.pkt_count_system.ruby.l1_cntrl0.sequencer.mem-master-port::system.ruby.l1_cntrl0.sequencer.pio-slave-port         1164                       # Packet count per connected master and slave (bytes)
system.iobus.pkt_count_system.ruby.l1_cntrl0.sequencer.mem-master-port::system.ruby.l1_cntrl2.sequencer.pio-slave-port            2                       # Packet count per connected master and slave (bytes)
system.iobus.pkt_count_system.ruby.l1_cntrl0.sequencer.mem-master-port::total         1172                       # Packet count per connected master and slave (bytes)
system.iobus.pkt_count_system.ruby.l1_cntrl1.sequencer.mem-master-port::system.pc.south_bridge.ide.pio           24                       # Packet count per connected master and slave (bytes)
system.iobus.pkt_count_system.ruby.l1_cntrl1.sequencer.mem-master-port::system.pc.com_1.pio         1330                       # Packet count per connected master and slave (bytes)
system.iobus.pkt_count_system.ruby.l1_cntrl1.sequencer.mem-master-port::system.ruby.l1_cntrl0.sequencer.pio-slave-port            2                       # Packet count per connected master and slave (bytes)
system.iobus.pkt_count_system.ruby.l1_cntrl1.sequencer.mem-master-port::system.ruby.l1_cntrl1.sequencer.pio-slave-port         1192                       # Packet count per connected master and slave (bytes)
system.iobus.pkt_count_system.ruby.l1_cntrl1.sequencer.mem-master-port::system.ruby.l1_cntrl2.sequencer.pio-slave-port            4                       # Packet count per connected master and slave (bytes)
system.iobus.pkt_count_system.ruby.l1_cntrl1.sequencer.mem-master-port::total         2552                       # Packet count per connected master and slave (bytes)
system.iobus.pkt_count_system.ruby.l1_cntrl2.sequencer.mem-master-port::system.pc.south_bridge.ide.pio           68                       # Packet count per connected master and slave (bytes)
system.iobus.pkt_count_system.ruby.l1_cntrl2.sequencer.mem-master-port::system.ruby.l1_cntrl0.sequencer.pio-slave-port            8                       # Packet count per connected master and slave (bytes)
system.iobus.pkt_count_system.ruby.l1_cntrl2.sequencer.mem-master-port::system.ruby.l1_cntrl1.sequencer.pio-slave-port           10                       # Packet count per connected master and slave (bytes)
system.iobus.pkt_count_system.ruby.l1_cntrl2.sequencer.mem-master-port::system.ruby.l1_cntrl2.sequencer.pio-slave-port         1246                       # Packet count per connected master and slave (bytes)
system.iobus.pkt_count_system.ruby.l1_cntrl2.sequencer.mem-master-port::system.ruby.l1_cntrl3.sequencer.pio-slave-port           12                       # Packet count per connected master and slave (bytes)
system.iobus.pkt_count_system.ruby.l1_cntrl2.sequencer.mem-master-port::total         1344                       # Packet count per connected master and slave (bytes)
system.iobus.pkt_count_system.ruby.l1_cntrl3.sequencer.mem-master-port::system.ruby.l1_cntrl2.sequencer.pio-slave-port            2                       # Packet count per connected master and slave (bytes)
system.iobus.pkt_count_system.ruby.l1_cntrl3.sequencer.mem-master-port::system.ruby.l1_cntrl3.sequencer.pio-slave-port         1166                       # Packet count per connected master and slave (bytes)
system.iobus.pkt_count_system.ruby.l1_cntrl3.sequencer.mem-master-port::total         1168                       # Packet count per connected master and slave (bytes)
system.iobus.pkt_count::total                    6574                       # Packet count per connected master and slave (bytes)
system.iobus.pkt_size_system.pc.south_bridge.io_apic.int_master::system.ruby.l1_cntrl1.sequencer.pio-slave-port          676                       # Cumulative packet size per connected master and slave (bytes)
system.iobus.pkt_size_system.pc.south_bridge.io_apic.int_master::total          676                       # Cumulative packet size per connected master and slave (bytes)
system.iobus.pkt_size_system.ruby.l1_cntrl0.sequencer.mem-master-port::system.pc.com_1.pio            3                       # Cumulative packet size per connected master and slave (bytes)
system.iobus.pkt_size_system.ruby.l1_cntrl0.sequencer.mem-master-port::system.ruby.l1_cntrl0.sequencer.pio-slave-port         2328                       # Cumulative packet size per connected master and slave (bytes)
system.iobus.pkt_size_system.ruby.l1_cntrl0.sequencer.mem-master-port::system.ruby.l1_cntrl2.sequencer.pio-slave-port            4                       # Cumulative packet size per connected master and slave (bytes)
system.iobus.pkt_size_system.ruby.l1_cntrl0.sequencer.mem-master-port::total         2335                       # Cumulative packet size per connected master and slave (bytes)
system.iobus.pkt_size_system.ruby.l1_cntrl1.sequencer.mem-master-port::system.pc.south_bridge.ide.pio           12                       # Cumulative packet size per connected master and slave (bytes)
system.iobus.pkt_size_system.ruby.l1_cntrl1.sequencer.mem-master-port::system.pc.com_1.pio          665                       # Cumulative packet size per connected master and slave (bytes)
system.iobus.pkt_size_system.ruby.l1_cntrl1.sequencer.mem-master-port::system.ruby.l1_cntrl0.sequencer.pio-slave-port            4                       # Cumulative packet size per connected master and slave (bytes)
system.iobus.pkt_size_system.ruby.l1_cntrl1.sequencer.mem-master-port::system.ruby.l1_cntrl1.sequencer.pio-slave-port         2384                       # Cumulative packet size per connected master and slave (bytes)
system.iobus.pkt_size_system.ruby.l1_cntrl1.sequencer.mem-master-port::system.ruby.l1_cntrl2.sequencer.pio-slave-port            8                       # Cumulative packet size per connected master and slave (bytes)
system.iobus.pkt_size_system.ruby.l1_cntrl1.sequencer.mem-master-port::total         3073                       # Cumulative packet size per connected master and slave (bytes)
system.iobus.pkt_size_system.ruby.l1_cntrl2.sequencer.mem-master-port::system.pc.south_bridge.ide.pio           40                       # Cumulative packet size per connected master and slave (bytes)
system.iobus.pkt_size_system.ruby.l1_cntrl2.sequencer.mem-master-port::system.ruby.l1_cntrl0.sequencer.pio-slave-port           16                       # Cumulative packet size per connected master and slave (bytes)
system.iobus.pkt_size_system.ruby.l1_cntrl2.sequencer.mem-master-port::system.ruby.l1_cntrl1.sequencer.pio-slave-port           20                       # Cumulative packet size per connected master and slave (bytes)
system.iobus.pkt_size_system.ruby.l1_cntrl2.sequencer.mem-master-port::system.ruby.l1_cntrl2.sequencer.pio-slave-port         2492                       # Cumulative packet size per connected master and slave (bytes)
system.iobus.pkt_size_system.ruby.l1_cntrl2.sequencer.mem-master-port::system.ruby.l1_cntrl3.sequencer.pio-slave-port           24                       # Cumulative packet size per connected master and slave (bytes)
system.iobus.pkt_size_system.ruby.l1_cntrl2.sequencer.mem-master-port::total         2592                       # Cumulative packet size per connected master and slave (bytes)
system.iobus.pkt_size_system.ruby.l1_cntrl3.sequencer.mem-master-port::system.ruby.l1_cntrl2.sequencer.pio-slave-port            4                       # Cumulative packet size per connected master and slave (bytes)
system.iobus.pkt_size_system.ruby.l1_cntrl3.sequencer.mem-master-port::system.ruby.l1_cntrl3.sequencer.pio-slave-port         2332                       # Cumulative packet size per connected master and slave (bytes)
system.iobus.pkt_size_system.ruby.l1_cntrl3.sequencer.mem-master-port::total         2336                       # Cumulative packet size per connected master and slave (bytes)
system.iobus.pkt_size::total                    11012                       # Cumulative packet size per connected master and slave (bytes)
system.iobus.reqLayer2.occupancy                76000                       # Layer occupancy (ticks)
system.iobus.reqLayer2.utilization                0.0                       # Layer utilization (%)
system.iobus.power_state.pwrStateResidencyTicks::UNDEFINED 109077593355001                       # Cumulative time (in ticks) in various power states
system.iobus.reqLayer19.occupancy             1512960                       # Layer occupancy (ticks)
system.iobus.reqLayer19.utilization               0.0                       # Layer utilization (%)
system.iobus.reqLayer17.occupancy             1453450                       # Layer occupancy (ticks)
system.iobus.reqLayer17.utilization               0.0                       # Layer utilization (%)
system.iobus.reqLayer12.occupancy              845500                       # Layer occupancy (ticks)
system.iobus.reqLayer12.utilization               0.0                       # Layer utilization (%)
system.iobus.reqLayer18.occupancy             1804476                       # Layer occupancy (ticks)
system.iobus.reqLayer18.utilization               0.0                       # Layer utilization (%)
system.iobus.respLayer9.occupancy              876500                       # Layer occupancy (ticks)
system.iobus.respLayer9.utilization               0.0                       # Layer utilization (%)
system.iobus.respLayer5.occupancy             2083000                       # Layer occupancy (ticks)
system.iobus.respLayer5.utilization               0.0                       # Layer utilization (%)
system.iobus.respLayer7.occupancy             1006500                       # Layer occupancy (ticks)
system.iobus.respLayer7.utilization               0.0                       # Layer utilization (%)
system.iobus.respLayer0.occupancy              252998                       # Layer occupancy (ticks)
system.iobus.respLayer0.utilization               0.0                       # Layer utilization (%)
system.iobus.respLayer3.occupancy              878000                       # Layer occupancy (ticks)
system.iobus.respLayer3.utilization               0.0                       # Layer utilization (%)
system.iobus.reqLayer20.occupancy             1461969                       # Layer occupancy (ticks)
system.iobus.reqLayer20.utilization               0.0                       # Layer utilization (%)

---------- End Simulation Statistics   ----------
