
---------- Begin Simulation Statistics ----------
final_tick                               99650692921001                       # Number of ticks from beginning of simulation (restored from checkpoints and never reset)
host_inst_rate                                1979472                       # Simulator instruction rate (inst/s)
host_mem_usage                                1843148                       # Number of bytes of host memory used
host_op_rate                                  2150679                       # Simulator op (including micro ops) rate (op/s)
host_seconds                                  3023.98                       # Real time elapsed on the host
host_tick_rate                              174686203                       # Simulator tick rate (ticks/s)
sim_freq                                 1000000000000                       # Frequency of simulated ticks
sim_insts                                  5985879088                       # Number of instructions simulated
sim_ops                                    6503604348                       # Number of ops (including micro ops) simulated
sim_seconds                                  0.528247                       # Number of seconds simulated
sim_ticks                                528247114501                       # Number of ticks simulated
system.cpu0.committedInsts                          0                       # Number of instructions committed
system.cpu0.dtb.rdAccesses                          0                       # TLB accesses on read requests
system.cpu0.dtb.rdMisses                            0                       # TLB misses on read requests
system.cpu0.dtb.wrAccesses                          0                       # TLB accesses on write requests
system.cpu0.dtb.wrMisses                            0                       # TLB misses on write requests
system.cpu0.itb.rdAccesses                          0                       # TLB accesses on read requests
system.cpu0.itb.rdMisses                            0                       # TLB misses on read requests
system.cpu0.itb.wrAccesses                          0                       # TLB accesses on write requests
system.cpu0.itb.wrMisses                            0                       # TLB misses on write requests
system.cpu0.kern.inst.arm                           0                       # number of arm instructions executed
system.cpu0.kern.inst.quiesce                       0                       # number of quiesce instructions executed
system.cpu0.numCoalescedMMIO                        0                       # number of coalesced memory mapped IO requests
system.cpu0.numCycles                               0                       # number of cpu cycles simulated
system.cpu0.numExitSignal                           0                       # exits due to signal delivery
system.cpu0.numHalt                                 0                       # number of VM exits due to wait for interrupt instructions
system.cpu0.numHypercalls                           0                       # number of hypercalls
system.cpu0.numIO                                   0                       # number of VM exits due to legacy IO
system.cpu0.numInterrupts                           0                       # number of interrupts delivered
system.cpu0.numMMIO                                 0                       # number of VM exits due to memory mapped IO
system.cpu0.numVMExits                              0                       # total number of KVM exits
system.cpu0.numVMHalfEntries                        0                       # number of KVM entries to finalize pending operations
system.cpu0.numWorkItemsCompleted                   0                       # number of work items this cpu completed
system.cpu0.numWorkItemsStarted                     0                       # number of work items this cpu started
system.cpu1.committedInsts                          0                       # Number of instructions committed
system.cpu1.dtb.rdAccesses                          0                       # TLB accesses on read requests
system.cpu1.dtb.rdMisses                            0                       # TLB misses on read requests
system.cpu1.dtb.wrAccesses                          0                       # TLB accesses on write requests
system.cpu1.dtb.wrMisses                            0                       # TLB misses on write requests
system.cpu1.itb.rdAccesses                          0                       # TLB accesses on read requests
system.cpu1.itb.rdMisses                            0                       # TLB misses on read requests
system.cpu1.itb.wrAccesses                          0                       # TLB accesses on write requests
system.cpu1.itb.wrMisses                            0                       # TLB misses on write requests
system.cpu1.kern.inst.arm                           0                       # number of arm instructions executed
system.cpu1.kern.inst.quiesce                       0                       # number of quiesce instructions executed
system.cpu1.numCoalescedMMIO                        0                       # number of coalesced memory mapped IO requests
system.cpu1.numCycles                               0                       # number of cpu cycles simulated
system.cpu1.numExitSignal                           0                       # exits due to signal delivery
system.cpu1.numHalt                                 0                       # number of VM exits due to wait for interrupt instructions
system.cpu1.numHypercalls                           0                       # number of hypercalls
system.cpu1.numIO                                   0                       # number of VM exits due to legacy IO
system.cpu1.numInterrupts                           0                       # number of interrupts delivered
system.cpu1.numMMIO                                 0                       # number of VM exits due to memory mapped IO
system.cpu1.numVMExits                              0                       # total number of KVM exits
system.cpu1.numVMHalfEntries                        0                       # number of KVM entries to finalize pending operations
system.cpu1.numWorkItemsCompleted                   0                       # number of work items this cpu completed
system.cpu1.numWorkItemsStarted                     0                       # number of work items this cpu started
system.cpu2.committedInsts                          0                       # Number of instructions committed
system.cpu2.dtb.rdAccesses                          0                       # TLB accesses on read requests
system.cpu2.dtb.rdMisses                            0                       # TLB misses on read requests
system.cpu2.dtb.wrAccesses                          0                       # TLB accesses on write requests
system.cpu2.dtb.wrMisses                            0                       # TLB misses on write requests
system.cpu2.itb.rdAccesses                          0                       # TLB accesses on read requests
system.cpu2.itb.rdMisses                            0                       # TLB misses on read requests
system.cpu2.itb.wrAccesses                          0                       # TLB accesses on write requests
system.cpu2.itb.wrMisses                            0                       # TLB misses on write requests
system.cpu2.kern.inst.arm                           0                       # number of arm instructions executed
system.cpu2.kern.inst.quiesce                       0                       # number of quiesce instructions executed
system.cpu2.numCoalescedMMIO                        0                       # number of coalesced memory mapped IO requests
system.cpu2.numCycles                               0                       # number of cpu cycles simulated
system.cpu2.numExitSignal                           0                       # exits due to signal delivery
system.cpu2.numHalt                                 0                       # number of VM exits due to wait for interrupt instructions
system.cpu2.numHypercalls                           0                       # number of hypercalls
system.cpu2.numIO                                   0                       # number of VM exits due to legacy IO
system.cpu2.numInterrupts                           0                       # number of interrupts delivered
system.cpu2.numMMIO                                 0                       # number of VM exits due to memory mapped IO
system.cpu2.numVMExits                              0                       # total number of KVM exits
system.cpu2.numVMHalfEntries                        0                       # number of KVM entries to finalize pending operations
system.cpu2.numWorkItemsCompleted                   0                       # number of work items this cpu completed
system.cpu2.numWorkItemsStarted                     0                       # number of work items this cpu started
system.cpu3.committedInsts                          0                       # Number of instructions committed
system.cpu3.dtb.rdAccesses                          0                       # TLB accesses on read requests
system.cpu3.dtb.rdMisses                            0                       # TLB misses on read requests
system.cpu3.dtb.wrAccesses                          0                       # TLB accesses on write requests
system.cpu3.dtb.wrMisses                            0                       # TLB misses on write requests
system.cpu3.itb.rdAccesses                          0                       # TLB accesses on read requests
system.cpu3.itb.rdMisses                            0                       # TLB misses on read requests
system.cpu3.itb.wrAccesses                          0                       # TLB accesses on write requests
system.cpu3.itb.wrMisses                            0                       # TLB misses on write requests
system.cpu3.kern.inst.arm                           0                       # number of arm instructions executed
system.cpu3.kern.inst.quiesce                       0                       # number of quiesce instructions executed
system.cpu3.numCoalescedMMIO                        0                       # number of coalesced memory mapped IO requests
system.cpu3.numCycles                               0                       # number of cpu cycles simulated
system.cpu3.numExitSignal                           0                       # exits due to signal delivery
system.cpu3.numHalt                                 0                       # number of VM exits due to wait for interrupt instructions
system.cpu3.numHypercalls                           0                       # number of hypercalls
system.cpu3.numIO                                   0                       # number of VM exits due to legacy IO
system.cpu3.numInterrupts                           0                       # number of interrupts delivered
system.cpu3.numMMIO                                 0                       # number of VM exits due to memory mapped IO
system.cpu3.numVMExits                              0                       # total number of KVM exits
system.cpu3.numVMHalfEntries                        0                       # number of KVM entries to finalize pending operations
system.cpu3.numWorkItemsCompleted                   0                       # number of work items this cpu completed
system.cpu3.numWorkItemsStarted                     0                       # number of work items this cpu started
system.pc.south_bridge.ide.disks.dma_read_bytes      8720384                       # Number of bytes transfered via DMA reads (not PRD).
system.pc.south_bridge.ide.disks.dma_read_full_pages         2129                       # Number of full page size DMA reads (not PRD).
system.pc.south_bridge.ide.disks.dma_read_txs         2129                       # Number of DMA read transactions (not PRD).
system.pc.south_bridge.ide.disks.dma_write_bytes       135168                       # Number of bytes transfered via DMA writes.
system.pc.south_bridge.ide.disks.dma_write_full_pages           33                       # Number of full page size DMA writes.
system.pc.south_bridge.ide.disks.dma_write_txs           33                       # Number of DMA write transactions.
system.ruby.DMA_Controller.I.allocI_load |      136571    100.00%    100.00% |           0      0.00%    100.00%
system.ruby.DMA_Controller.I.allocI_load::total       136571                      
system.ruby.DMA_Controller.I.allocI_store |        2112    100.00%    100.00% |           0      0.00%    100.00%
system.ruby.DMA_Controller.I.allocI_store::total         2112                      
system.ruby.DMA_Controller.I.deallocfwdfrom_in |      137659    100.00%    100.00% |           0      0.00%    100.00%
system.ruby.DMA_Controller.I.deallocfwdfrom_in::total       137659                      
system.ruby.DMA_Controller.M.allocTBE    |        2112    100.00%    100.00% |           0      0.00%    100.00%
system.ruby.DMA_Controller.M.allocTBE::total         2112                      
system.ruby.DMA_Controller.M.externalstoreMrespfrom_in |        2112    100.00%    100.00% |           0      0.00%    100.00%
system.ruby.DMA_Controller.M.externalstoreMrespfrom_in::total         2112                      
system.ruby.DMA_Controller.M_evict.Stallmandatory_in |       26830    100.00%    100.00% |           0      0.00%    100.00%
system.ruby.DMA_Controller.M_evict.Stallmandatory_in::total        26830                      
system.ruby.DMA_Controller.S.SloadSEvent |         306    100.00%    100.00% |           0      0.00%    100.00%
system.ruby.DMA_Controller.S.SloadSEvent::total          306                      
system.ruby.DMA_Controller.S.allocTBE    |      135867    100.00%    100.00% |           0      0.00%    100.00%
system.ruby.DMA_Controller.S.allocTBE::total       135867                      
system.ruby.DMA_Controller.S.deallocTBE  |         320    100.00%    100.00% |           0      0.00%    100.00%
system.ruby.DMA_Controller.S.deallocTBE::total          320                      
system.ruby.DMA_Controller.S.externalloadSrespfrom_in |      136571    100.00%    100.00% |           0      0.00%    100.00%
system.ruby.DMA_Controller.S.externalloadSrespfrom_in::total       136571                      
system.ruby.DMA_Controller.S_evict.Stallmandatory_in |      394868    100.00%    100.00% |           0      0.00%    100.00%
system.ruby.DMA_Controller.S_evict.Stallmandatory_in::total       394868                      
system.ruby.DMA_Controller.SloadSEvent   |         306    100.00%    100.00% |           0      0.00%    100.00%
system.ruby.DMA_Controller.SloadSEvent::total          306                      
system.ruby.DMA_Controller.Stallmandatory_in |      421698    100.00%    100.00% |           0      0.00%    100.00%
system.ruby.DMA_Controller.Stallmandatory_in::total       421698                      
system.ruby.DMA_Controller.allocI_load   |      136571    100.00%    100.00% |           0      0.00%    100.00%
system.ruby.DMA_Controller.allocI_load::total       136571                      
system.ruby.DMA_Controller.allocI_store  |        2112    100.00%    100.00% |           0      0.00%    100.00%
system.ruby.DMA_Controller.allocI_store::total         2112                      
system.ruby.DMA_Controller.allocTBE      |      137979    100.00%    100.00% |           0      0.00%    100.00%
system.ruby.DMA_Controller.allocTBE::total       137979                      
system.ruby.DMA_Controller.deallocTBE    |         320    100.00%    100.00% |           0      0.00%    100.00%
system.ruby.DMA_Controller.deallocTBE::total          320                      
system.ruby.DMA_Controller.deallocfwdfrom_in |      137659    100.00%    100.00% |           0      0.00%    100.00%
system.ruby.DMA_Controller.deallocfwdfrom_in::total       137659                      
system.ruby.DMA_Controller.externalloadSrespfrom_in |      136571    100.00%    100.00% |           0      0.00%    100.00%
system.ruby.DMA_Controller.externalloadSrespfrom_in::total       136571                      
system.ruby.DMA_Controller.externalstoreMrespfrom_in |        2112    100.00%    100.00% |           0      0.00%    100.00%
system.ruby.DMA_Controller.externalstoreMrespfrom_in::total         2112                      
system.ruby.Directory_Controller.I.allocTBE |     1429490     25.28%     25.28% |     1420074     25.12%     50.40% |     1397596     24.72%     75.12% |     1406598     24.88%    100.00%
system.ruby.Directory_Controller.I.allocTBE::total      5653758                      
system.ruby.Directory_Controller.I.deallocTBE |     1428641     25.28%     25.28% |     1419179     25.12%     50.40% |     1396738     24.72%     75.12% |     1405734     24.88%    100.00%
system.ruby.Directory_Controller.I.deallocTBE::total      5650292                      
system.ruby.Directory_Controller.I_GetSL1C1C1_0.Stallreqto_in |         191     22.29%     22.29% |         213     24.85%     47.14% |         265     30.92%     78.06% |         188     21.94%    100.00%
system.ruby.Directory_Controller.I_GetSL1C1C1_0.Stallreqto_in::total          857                      
system.ruby.Directory_Controller.M.allocTBE |      948059     25.02%     25.02% |      946875     24.99%     50.01% |      948229     25.03%     75.04% |      945696     24.96%    100.00%
system.ruby.Directory_Controller.M.allocTBE::total      3788859                      
system.ruby.Directory_Controller.M.deallocTBE |      948152     25.02%     25.02% |      946980     24.99%     50.01% |      948335     25.03%     75.04% |      945781     24.96%    100.00%
system.ruby.Directory_Controller.M.deallocTBE::total      3789248                      
system.ruby.Directory_Controller.M_GetM.Progress |        1612     17.32%     17.32% |        3031     32.57%     49.90% |        2986     32.09%     81.99% |        1676     18.01%    100.00%
system.ruby.Directory_Controller.M_GetM.Progress::total         9305                      
system.ruby.Directory_Controller.M_GetM.Stallreqto_in |          11     15.71%     15.71% |          35     50.00%     65.71% |          18     25.71%     91.43% |           6      8.57%    100.00%
system.ruby.Directory_Controller.M_GetM.Stallreqto_in::total           70                      
system.ruby.Directory_Controller.M_GetS.Progress |        7240     24.32%     24.32% |        8053     27.05%     51.36% |        8046     27.02%     78.38% |        6436     21.62%    100.00%
system.ruby.Directory_Controller.M_GetS.Progress::total        29775                      
system.ruby.Directory_Controller.M_GetS.Stallreqto_in |         393     27.46%     27.46% |         749     52.34%     79.80% |         225     15.72%     95.53% |          64      4.47%    100.00%
system.ruby.Directory_Controller.M_GetS.Stallreqto_in::total         1431                      
system.ruby.Directory_Controller.M_GetS_WBL1C1C1_0.Stallreqto_in |         656     22.77%     22.77% |        1407     48.84%     71.61% |         444     15.41%     87.02% |         374     12.98%    100.00%
system.ruby.Directory_Controller.M_GetS_WBL1C1C1_0.Stallreqto_in::total         2881                      
system.ruby.Directory_Controller.M_PutML1C1C1_0.Stallreqto_in |           1     50.00%     50.00% |           0      0.00%     50.00% |           0      0.00%     50.00% |           1     50.00%    100.00%
system.ruby.Directory_Controller.M_PutML1C1C1_0.Stallreqto_in::total            2                      
system.ruby.Directory_Controller.Progress |        9265     22.31%     22.31% |       11596     27.92%     50.23% |       12104     29.14%     79.37% |        8567     20.63%    100.00%
system.ruby.Directory_Controller.Progress::total        41532                      
system.ruby.Directory_Controller.S.allocTBE |     1912213     25.83%     25.83% |     1866482     25.21%     51.04% |     1808590     24.43%     75.47% |     1816422     24.53%    100.00%
system.ruby.Directory_Controller.S.allocTBE::total      7403707                      
system.ruby.Directory_Controller.S.deallocTBE |     1912968     25.83%     25.83% |     1867272     25.21%     51.04% |     1809342     24.43%     75.47% |     1817201     24.53%    100.00%
system.ruby.Directory_Controller.S.deallocTBE::total      7406783                      
system.ruby.Directory_Controller.S_GetM.Progress |         413     16.84%     16.84% |         512     20.88%     37.72% |        1072     43.72%     81.44% |         455     18.56%    100.00%
system.ruby.Directory_Controller.S_GetM.Progress::total         2452                      
system.ruby.Directory_Controller.S_GetM.Stallreqto_in |         146     26.40%     26.40% |         201     36.35%     62.75% |         157     28.39%     91.14% |          49      8.86%    100.00%
system.ruby.Directory_Controller.S_GetM.Stallreqto_in::total          553                      
system.ruby.Directory_Controller.S_GetM.allocTBE |        3832     22.01%     22.01% |        4638     26.63%     48.64% |        5433     31.20%     79.84% |        3511     20.16%    100.00%
system.ruby.Directory_Controller.S_GetM.allocTBE::total        17414                      
system.ruby.Directory_Controller.S_GetM.deallocTBE |        3832     22.01%     22.01% |        4638     26.63%     48.64% |        5433     31.20%     79.84% |        3511     20.16%    100.00%
system.ruby.Directory_Controller.S_GetM.deallocTBE::total        17414                      
system.ruby.Directory_Controller.S_GetML1C1C1_0.Stallreqto_in |         101     35.19%     35.19% |          81     28.22%     63.41% |          77     26.83%     90.24% |          28      9.76%    100.00%
system.ruby.Directory_Controller.S_GetML1C1C1_0.Stallreqto_in::total          287                      
system.ruby.Directory_Controller.S_GetML1C1C1_1.Stallreqto_in |           0      0.00%      0.00% |           5    100.00%    100.00% |           0      0.00%    100.00% |           0      0.00%    100.00%
system.ruby.Directory_Controller.S_GetML1C1C1_1.Stallreqto_in::total            5                      
system.ruby.Directory_Controller.S_GetML1C1C1_2.Stallreqto_in |          14     23.33%     23.33% |          33     55.00%     78.33% |          12     20.00%     98.33% |           1      1.67%    100.00%
system.ruby.Directory_Controller.S_GetML1C1C1_2.Stallreqto_in::total           60                      
system.ruby.Directory_Controller.S_GetSL1C1C1_0.Stallreqto_in |         352     33.05%     33.05% |         284     26.67%     59.72% |         236     22.16%     81.88% |         193     18.12%    100.00%
system.ruby.Directory_Controller.S_GetSL1C1C1_0.Stallreqto_in::total         1065                      
system.ruby.Directory_Controller.Stallreqto_in |        1865     25.86%     25.86% |        3008     41.71%     67.58% |        1434     19.89%     87.46% |         904     12.54%    100.00%
system.ruby.Directory_Controller.Stallreqto_in::total         7211                      
system.ruby.Directory_Controller.allocTBE |     4293594     25.46%     25.46% |     4238069     25.13%     50.59% |     4159848     24.67%     75.26% |     4172227     24.74%    100.00%
system.ruby.Directory_Controller.allocTBE::total     16863738                      
system.ruby.Directory_Controller.deallocTBE |     4293593     25.46%     25.46% |     4238069     25.13%     50.59% |     4159848     24.67%     75.26% |     4172227     24.74%    100.00%
system.ruby.Directory_Controller.deallocTBE::total     16863737                      
system.ruby.IFETCH.hit_latency_hist_seqr::bucket_size            1                      
system.ruby.IFETCH.hit_latency_hist_seqr::max_bucket            9                      
system.ruby.IFETCH.hit_latency_hist_seqr::samples   1222587346                      
system.ruby.IFETCH.hit_latency_hist_seqr |  1222587346    100.00%    100.00% |           0      0.00%    100.00% |           0      0.00%    100.00% |           0      0.00%    100.00% |           0      0.00%    100.00% |           0      0.00%    100.00% |           0      0.00%    100.00% |           0      0.00%    100.00% |           0      0.00%    100.00% |           0      0.00%    100.00%
system.ruby.IFETCH.hit_latency_hist_seqr::total   1222587346                      
system.ruby.IFETCH.latency_hist_seqr::bucket_size            1                      
system.ruby.IFETCH.latency_hist_seqr::max_bucket            9                      
system.ruby.IFETCH.latency_hist_seqr::samples   1223774128                      
system.ruby.IFETCH.latency_hist_seqr     |  1223774128    100.00%    100.00% |           0      0.00%    100.00% |           0      0.00%    100.00% |           0      0.00%    100.00% |           0      0.00%    100.00% |           0      0.00%    100.00% |           0      0.00%    100.00% |           0      0.00%    100.00% |           0      0.00%    100.00% |           0      0.00%    100.00%
system.ruby.IFETCH.latency_hist_seqr::total   1223774128                      
system.ruby.IFETCH.miss_latency_hist_seqr::bucket_size            1                      
system.ruby.IFETCH.miss_latency_hist_seqr::max_bucket            9                      
system.ruby.IFETCH.miss_latency_hist_seqr::samples      1186782                      
system.ruby.IFETCH.miss_latency_hist_seqr |     1186782    100.00%    100.00% |           0      0.00%    100.00% |           0      0.00%    100.00% |           0      0.00%    100.00% |           0      0.00%    100.00% |           0      0.00%    100.00% |           0      0.00%    100.00% |           0      0.00%    100.00% |           0      0.00%    100.00% |           0      0.00%    100.00%
system.ruby.IFETCH.miss_latency_hist_seqr::total      1186782                      
system.ruby.L1Cache_Controller.I.allocI_load |     1631976     26.34%     26.34% |     1556347     25.12%     51.45% |     1511089     24.38%     75.84% |     1497437     24.16%    100.00%
system.ruby.L1Cache_Controller.I.allocI_load::total      6196849                      
system.ruby.L1Cache_Controller.I.allocI_store |      106599     25.25%     25.25% |      106842     25.30%     50.55% |      107584     25.48%     76.03% |      101226     23.97%    100.00%
system.ruby.L1Cache_Controller.I.allocI_store::total       422251                      
system.ruby.L1Cache_Controller.I.deallocfwdfrom_in |     1737567     26.27%     26.27% |     1662183     25.13%     51.39% |     1617662     24.45%     75.85% |     1597662     24.15%    100.00%
system.ruby.L1Cache_Controller.I.deallocfwdfrom_in::total      6615074                      
system.ruby.L1Cache_Controller.I_store.Progress |        2093     63.54%     63.54% |         441     13.39%     76.93% |         384     11.66%     88.59% |         376     11.41%    100.00%
system.ruby.L1Cache_Controller.I_store.Progress::total         3294                      
system.ruby.L1Cache_Controller.I_store.Stallfwdfrom_in |          57     18.21%     18.21% |         100     31.95%     50.16% |          65     20.77%     70.93% |          91     29.07%    100.00%
system.ruby.L1Cache_Controller.I_store.Stallfwdfrom_in::total          313                      
system.ruby.L1Cache_Controller.M.MloadMEvent |    31999916     24.33%     24.33% |    33520892     25.48%     49.81% |    28656850     21.78%     71.59% |    37367167     28.41%    100.00%
system.ruby.L1Cache_Controller.M.MloadMEvent::total    131544825                      
system.ruby.L1Cache_Controller.M.MstoreMEvent |    18792856     27.34%     27.34% |    16164679     23.52%     50.86% |    15863855     23.08%     73.95% |    17906047     26.05%    100.00%
system.ruby.L1Cache_Controller.M.MstoreMEvent::total     68727437                      
system.ruby.L1Cache_Controller.M.allocTBE |      928129     24.51%     24.51% |      938821     24.79%     49.30% |      954235     25.20%     74.50% |      965559     25.50%    100.00%
system.ruby.L1Cache_Controller.M.allocTBE::total      3786744                      
system.ruby.L1Cache_Controller.M.externalstoreMrespfrom_in |      928215     24.51%     24.51% |      938918     24.79%     49.30% |      954347     25.20%     74.50% |      965653     25.50%    100.00%
system.ruby.L1Cache_Controller.M.externalstoreMrespfrom_in::total      3787133                      
system.ruby.L1Cache_Controller.M_evict.Stallmandatory_in |        1143     24.29%     24.29% |        1751     37.21%     61.50% |         871     18.51%     80.00% |         941     20.00%    100.00%
system.ruby.L1Cache_Controller.M_evict.Stallmandatory_in::total         4706                      
system.ruby.L1Cache_Controller.MloadMEvent |    31999916     24.33%     24.33% |    33520892     25.48%     49.81% |    28656850     21.78%     71.59% |    37367167     28.41%    100.00%
system.ruby.L1Cache_Controller.MloadMEvent::total    131544825                      
system.ruby.L1Cache_Controller.MstoreMEvent |    18792856     27.34%     27.34% |    16164679     23.52%     50.86% |    15863855     23.08%     73.95% |    17906047     26.05%    100.00%
system.ruby.L1Cache_Controller.MstoreMEvent::total     68727437                      
system.ruby.L1Cache_Controller.Progress  |      829257     24.50%     24.50% |      838000     24.76%     49.26% |      850027     25.11%     74.37% |      867562     25.63%    100.00%
system.ruby.L1Cache_Controller.Progress::total      3384846                      
system.ruby.L1Cache_Controller.S.SloadSEvent |   328723383     24.50%     24.50% |   336491446     25.08%     49.58% |   344271654     25.66%     75.24% |   332141100     24.76%    100.00%
system.ruby.L1Cache_Controller.S.SloadSEvent::total   1341627583                      
system.ruby.L1Cache_Controller.S.allocTBE |     1641555     26.38%     26.38% |     1562846     25.12%     51.50% |     1515761     24.36%     75.85% |     1502505     24.15%    100.00%
system.ruby.L1Cache_Controller.S.allocTBE::total      6222667                      
system.ruby.L1Cache_Controller.S.deallocTBE |       10501     35.65%     35.65% |        7407     25.15%     60.80% |        5571     18.91%     79.71% |        5975     20.29%    100.00%
system.ruby.L1Cache_Controller.S.deallocTBE::total        29454                      
system.ruby.L1Cache_Controller.S.externalloadSrespfrom_in |     1631976     26.34%     26.34% |     1556347     25.12%     51.45% |     1511089     24.38%     75.84% |     1497437     24.16%    100.00%
system.ruby.L1Cache_Controller.S.externalloadSrespfrom_in::total      6196849                      
system.ruby.L1Cache_Controller.S_evict.Progress |           0      0.00%      0.00% |           1    100.00%    100.00% |           0      0.00%    100.00% |           0      0.00%    100.00%
system.ruby.L1Cache_Controller.S_evict.Progress::total            1                      
system.ruby.L1Cache_Controller.S_evict.Stallmandatory_in |         814     32.50%     32.50% |         739     29.50%     62.00% |         441     17.60%     79.60% |         511     20.40%    100.00%
system.ruby.L1Cache_Controller.S_evict.Stallmandatory_in::total         2505                      
system.ruby.L1Cache_Controller.S_evict_x_I.Progress |           1     33.33%     33.33% |           1     33.33%     66.67% |           1     33.33%    100.00% |           0      0.00%    100.00%
system.ruby.L1Cache_Controller.S_evict_x_I.Progress::total            3                      
system.ruby.L1Cache_Controller.S_evict_x_I.Stallmandatory_in |           3     33.33%     33.33% |           3     33.33%     66.67% |           3     33.33%    100.00% |           0      0.00%    100.00%
system.ruby.L1Cache_Controller.S_evict_x_I.Stallmandatory_in::total            9                      
system.ruby.L1Cache_Controller.S_store.Progress |      827163     24.46%     24.46% |      837557     24.77%     49.23% |      849640     25.13%     74.36% |      867186     25.64%    100.00%
system.ruby.L1Cache_Controller.S_store.Progress::total      3381546                      
system.ruby.L1Cache_Controller.S_store.Stallfwdfrom_in |          55      9.62%      9.62% |         131     22.90%     32.52% |         165     28.85%     61.36% |         221     38.64%    100.00%
system.ruby.L1Cache_Controller.S_store.Stallfwdfrom_in::total          572                      
system.ruby.L1Cache_Controller.S_store_GetM_Ack_AD.Progress |           0      0.00%      0.00% |           0      0.00%      0.00% |           2    100.00%    100.00% |           0      0.00%    100.00%
system.ruby.L1Cache_Controller.S_store_GetM_Ack_AD.Progress::total            2                      
system.ruby.L1Cache_Controller.SloadSEvent |   328723383     24.50%     24.50% |   336491446     25.08%     49.58% |   344271654     25.66%     75.24% |   332141100     24.76%    100.00%
system.ruby.L1Cache_Controller.SloadSEvent::total   1341627583                      
system.ruby.L1Cache_Controller.Stallfwdfrom_in |         112     12.66%     12.66% |         231     26.10%     38.76% |         230     25.99%     64.75% |         312     35.25%    100.00%
system.ruby.L1Cache_Controller.Stallfwdfrom_in::total          885                      
system.ruby.L1Cache_Controller.Stallmandatory_in |        1960     27.15%     27.15% |        2493     34.53%     61.68% |        1315     18.21%     79.89% |        1452     20.11%    100.00%
system.ruby.L1Cache_Controller.Stallmandatory_in::total         7220                      
system.ruby.L1Cache_Controller.allocI_load |     1631976     26.34%     26.34% |     1556347     25.12%     51.45% |     1511089     24.38%     75.84% |     1497437     24.16%    100.00%
system.ruby.L1Cache_Controller.allocI_load::total      6196849                      
system.ruby.L1Cache_Controller.allocI_store |      106599     25.25%     25.25% |      106842     25.30%     50.55% |      107584     25.48%     76.03% |      101226     23.97%    100.00%
system.ruby.L1Cache_Controller.allocI_store::total       422251                      
system.ruby.L1Cache_Controller.allocTBE  |     2569684     25.67%     25.67% |     2501667     24.99%     50.67% |     2469996     24.68%     75.34% |     2468064     24.66%    100.00%
system.ruby.L1Cache_Controller.allocTBE::total     10009411                      
system.ruby.L1Cache_Controller.deallocTBE |       10501     35.65%     35.65% |        7407     25.15%     60.80% |        5571     18.91%     79.71% |        5975     20.29%    100.00%
system.ruby.L1Cache_Controller.deallocTBE::total        29454                      
system.ruby.L1Cache_Controller.deallocfwdfrom_in |     1737567     26.27%     26.27% |     1662183     25.13%     51.39% |     1617662     24.45%     75.85% |     1597662     24.15%    100.00%
system.ruby.L1Cache_Controller.deallocfwdfrom_in::total      6615074                      
system.ruby.L1Cache_Controller.externalloadSrespfrom_in |     1631976     26.34%     26.34% |     1556347     25.12%     51.45% |     1511089     24.38%     75.84% |     1497437     24.16%    100.00%
system.ruby.L1Cache_Controller.externalloadSrespfrom_in::total      6196849                      
system.ruby.L1Cache_Controller.externalstoreMrespfrom_in |      928215     24.51%     24.51% |      938918     24.79%     49.30% |      954347     25.20%     74.50% |      965653     25.50%    100.00%
system.ruby.L1Cache_Controller.externalstoreMrespfrom_in::total      3787133                      
system.ruby.LD.hit_latency_hist_seqr::bucket_size            1                      
system.ruby.LD.hit_latency_hist_seqr::max_bucket            9                      
system.ruby.LD.hit_latency_hist_seqr::samples    250585062                      
system.ruby.LD.hit_latency_hist_seqr     |   250585062    100.00%    100.00% |           0      0.00%    100.00% |           0      0.00%    100.00% |           0      0.00%    100.00% |           0      0.00%    100.00% |           0      0.00%    100.00% |           0      0.00%    100.00% |           0      0.00%    100.00% |           0      0.00%    100.00% |           0      0.00%    100.00%
system.ruby.LD.hit_latency_hist_seqr::total    250585062                      
system.ruby.LD.latency_hist_seqr::bucket_size            1                      
system.ruby.LD.latency_hist_seqr::max_bucket            9                      
system.ruby.LD.latency_hist_seqr::samples    255595129                      
system.ruby.LD.latency_hist_seqr         |   255595129    100.00%    100.00% |           0      0.00%    100.00% |           0      0.00%    100.00% |           0      0.00%    100.00% |           0      0.00%    100.00% |           0      0.00%    100.00% |           0      0.00%    100.00% |           0      0.00%    100.00% |           0      0.00%    100.00% |           0      0.00%    100.00%
system.ruby.LD.latency_hist_seqr::total     255595129                      
system.ruby.LD.miss_latency_hist_seqr::bucket_size            1                      
system.ruby.LD.miss_latency_hist_seqr::max_bucket            9                      
system.ruby.LD.miss_latency_hist_seqr::samples      5010067                      
system.ruby.LD.miss_latency_hist_seqr    |     5010067    100.00%    100.00% |           0      0.00%    100.00% |           0      0.00%    100.00% |           0      0.00%    100.00% |           0      0.00%    100.00% |           0      0.00%    100.00% |           0      0.00%    100.00% |           0      0.00%    100.00% |           0      0.00%    100.00% |           0      0.00%    100.00%
system.ruby.LD.miss_latency_hist_seqr::total      5010067                      
system.ruby.Locked_RMW_Read.hit_latency_hist_seqr::bucket_size            1                      
system.ruby.Locked_RMW_Read.hit_latency_hist_seqr::max_bucket            9                      
system.ruby.Locked_RMW_Read.hit_latency_hist_seqr::samples       101094                      
system.ruby.Locked_RMW_Read.hit_latency_hist_seqr |      101094    100.00%    100.00% |           0      0.00%    100.00% |           0      0.00%    100.00% |           0      0.00%    100.00% |           0      0.00%    100.00% |           0      0.00%    100.00% |           0      0.00%    100.00% |           0      0.00%    100.00% |           0      0.00%    100.00% |           0      0.00%    100.00%
system.ruby.Locked_RMW_Read.hit_latency_hist_seqr::total       101094                      
system.ruby.Locked_RMW_Read.latency_hist_seqr::bucket_size            1                      
system.ruby.Locked_RMW_Read.latency_hist_seqr::max_bucket            9                      
system.ruby.Locked_RMW_Read.latency_hist_seqr::samples       137928                      
system.ruby.Locked_RMW_Read.latency_hist_seqr |      137928    100.00%    100.00% |           0      0.00%    100.00% |           0      0.00%    100.00% |           0      0.00%    100.00% |           0      0.00%    100.00% |           0      0.00%    100.00% |           0      0.00%    100.00% |           0      0.00%    100.00% |           0      0.00%    100.00% |           0      0.00%    100.00%
system.ruby.Locked_RMW_Read.latency_hist_seqr::total       137928                      
system.ruby.Locked_RMW_Read.miss_latency_hist_seqr::bucket_size            1                      
system.ruby.Locked_RMW_Read.miss_latency_hist_seqr::max_bucket            9                      
system.ruby.Locked_RMW_Read.miss_latency_hist_seqr::samples        36834                      
system.ruby.Locked_RMW_Read.miss_latency_hist_seqr |       36834    100.00%    100.00% |           0      0.00%    100.00% |           0      0.00%    100.00% |           0      0.00%    100.00% |           0      0.00%    100.00% |           0      0.00%    100.00% |           0      0.00%    100.00% |           0      0.00%    100.00% |           0      0.00%    100.00% |           0      0.00%    100.00%
system.ruby.Locked_RMW_Read.miss_latency_hist_seqr::total        36834                      
system.ruby.Locked_RMW_Write.hit_latency_hist_seqr::bucket_size            1                      
system.ruby.Locked_RMW_Write.hit_latency_hist_seqr::max_bucket            9                      
system.ruby.Locked_RMW_Write.hit_latency_hist_seqr::samples       137928                      
system.ruby.Locked_RMW_Write.hit_latency_hist_seqr |      137928    100.00%    100.00% |           0      0.00%    100.00% |           0      0.00%    100.00% |           0      0.00%    100.00% |           0      0.00%    100.00% |           0      0.00%    100.00% |           0      0.00%    100.00% |           0      0.00%    100.00% |           0      0.00%    100.00% |           0      0.00%    100.00%
system.ruby.Locked_RMW_Write.hit_latency_hist_seqr::total       137928                      
system.ruby.Locked_RMW_Write.latency_hist_seqr::bucket_size            1                      
system.ruby.Locked_RMW_Write.latency_hist_seqr::max_bucket            9                      
system.ruby.Locked_RMW_Write.latency_hist_seqr::samples       137928                      
system.ruby.Locked_RMW_Write.latency_hist_seqr |      137928    100.00%    100.00% |           0      0.00%    100.00% |           0      0.00%    100.00% |           0      0.00%    100.00% |           0      0.00%    100.00% |           0      0.00%    100.00% |           0      0.00%    100.00% |           0      0.00%    100.00% |           0      0.00%    100.00% |           0      0.00%    100.00%
system.ruby.Locked_RMW_Write.latency_hist_seqr::total       137928                      
system.ruby.RMW_Read.hit_latency_hist_seqr::bucket_size            1                      
system.ruby.RMW_Read.hit_latency_hist_seqr::max_bucket            9                      
system.ruby.RMW_Read.hit_latency_hist_seqr::samples      2972431                      
system.ruby.RMW_Read.hit_latency_hist_seqr |     2972431    100.00%    100.00% |           0      0.00%    100.00% |           0      0.00%    100.00% |           0      0.00%    100.00% |           0      0.00%    100.00% |           0      0.00%    100.00% |           0      0.00%    100.00% |           0      0.00%    100.00% |           0      0.00%    100.00% |           0      0.00%    100.00%
system.ruby.RMW_Read.hit_latency_hist_seqr::total      2972431                      
system.ruby.RMW_Read.latency_hist_seqr::bucket_size            1                      
system.ruby.RMW_Read.latency_hist_seqr::max_bucket            9                      
system.ruby.RMW_Read.latency_hist_seqr::samples      3015464                      
system.ruby.RMW_Read.latency_hist_seqr   |     3015464    100.00%    100.00% |           0      0.00%    100.00% |           0      0.00%    100.00% |           0      0.00%    100.00% |           0      0.00%    100.00% |           0      0.00%    100.00% |           0      0.00%    100.00% |           0      0.00%    100.00% |           0      0.00%    100.00% |           0      0.00%    100.00%
system.ruby.RMW_Read.latency_hist_seqr::total      3015464                      
system.ruby.RMW_Read.miss_latency_hist_seqr::bucket_size            1                      
system.ruby.RMW_Read.miss_latency_hist_seqr::max_bucket            9                      
system.ruby.RMW_Read.miss_latency_hist_seqr::samples        43033                      
system.ruby.RMW_Read.miss_latency_hist_seqr |       43033    100.00%    100.00% |           0      0.00%    100.00% |           0      0.00%    100.00% |           0      0.00%    100.00% |           0      0.00%    100.00% |           0      0.00%    100.00% |           0      0.00%    100.00% |           0      0.00%    100.00% |           0      0.00%    100.00% |           0      0.00%    100.00%
system.ruby.RMW_Read.miss_latency_hist_seqr::total        43033                      
system.ruby.ST.hit_latency_hist_seqr::bucket_size            1                      
system.ruby.ST.hit_latency_hist_seqr::max_bucket            9                      
system.ruby.ST.hit_latency_hist_seqr::samples     65515984                      
system.ruby.ST.hit_latency_hist_seqr     |    65515984    100.00%    100.00% |           0      0.00%    100.00% |           0      0.00%    100.00% |           0      0.00%    100.00% |           0      0.00%    100.00% |           0      0.00%    100.00% |           0      0.00%    100.00% |           0      0.00%    100.00% |           0      0.00%    100.00% |           0      0.00%    100.00%
system.ruby.ST.hit_latency_hist_seqr::total     65515984                      
system.ruby.ST.latency_hist_seqr::bucket_size            1                      
system.ruby.ST.latency_hist_seqr::max_bucket            9                      
system.ruby.ST.latency_hist_seqr::samples     69223250                      
system.ruby.ST.latency_hist_seqr         |    69223250    100.00%    100.00% |           0      0.00%    100.00% |           0      0.00%    100.00% |           0      0.00%    100.00% |           0      0.00%    100.00% |           0      0.00%    100.00% |           0      0.00%    100.00% |           0      0.00%    100.00% |           0      0.00%    100.00% |           0      0.00%    100.00%
system.ruby.ST.latency_hist_seqr::total      69223250                      
system.ruby.ST.miss_latency_hist_seqr::bucket_size            1                      
system.ruby.ST.miss_latency_hist_seqr::max_bucket            9                      
system.ruby.ST.miss_latency_hist_seqr::samples      3707266                      
system.ruby.ST.miss_latency_hist_seqr    |     3707266    100.00%    100.00% |           0      0.00%    100.00% |           0      0.00%    100.00% |           0      0.00%    100.00% |           0      0.00%    100.00% |           0      0.00%    100.00% |           0      0.00%    100.00% |           0      0.00%    100.00% |           0      0.00%    100.00% |           0      0.00%    100.00%
system.ruby.ST.miss_latency_hist_seqr::total      3707266                      
system.ruby.dir_cntrl0.fwdFrom.avg_buf_msgs     0.009838                       # Average number of messages in buffer
system.ruby.dir_cntrl0.fwdFrom.avg_stall_time  2999.972821                       # Average number of cycles messages are stalled in this MB
system.ruby.dir_cntrl0.reqTo.avg_buf_msgs     0.004078                       # Average number of messages in buffer
system.ruby.dir_cntrl0.reqTo.avg_stall_time  5273.552195                       # Average number of cycles messages are stalled in this MB
system.ruby.dir_cntrl0.requestToMemory.avg_buf_msgs     0.003320                       # Average number of messages in buffer
system.ruby.dir_cntrl0.requestToMemory.avg_stall_time   499.999995                       # Average number of cycles messages are stalled in this MB
system.ruby.dir_cntrl0.respFrom.avg_buf_msgs     0.015486                       # Average number of messages in buffer
system.ruby.dir_cntrl0.respFrom.avg_stall_time  3029.773031                       # Average number of cycles messages are stalled in this MB
system.ruby.dir_cntrl0.respTo.avg_buf_msgs     0.000012                       # Average number of messages in buffer
system.ruby.dir_cntrl0.respTo.avg_stall_time  9918.110696                       # Average number of cycles messages are stalled in this MB
system.ruby.dir_cntrl0.responseFromMemory.avg_buf_msgs     0.003328                       # Average number of messages in buffer
system.ruby.dir_cntrl0.responseFromMemory.avg_stall_time   499.999915                       # Average number of cycles messages are stalled in this MB
system.ruby.dir_cntrl1.fwdFrom.avg_buf_msgs     0.009695                       # Average number of messages in buffer
system.ruby.dir_cntrl1.fwdFrom.avg_stall_time  2999.943124                       # Average number of cycles messages are stalled in this MB
system.ruby.dir_cntrl1.reqTo.avg_buf_msgs     0.004036                       # Average number of messages in buffer
system.ruby.dir_cntrl1.reqTo.avg_stall_time  5329.202858                       # Average number of cycles messages are stalled in this MB
system.ruby.dir_cntrl1.requestToMemory.avg_buf_msgs     0.003289                       # Average number of messages in buffer
system.ruby.dir_cntrl1.requestToMemory.avg_stall_time   499.999895                       # Average number of cycles messages are stalled in this MB
system.ruby.dir_cntrl1.respFrom.avg_buf_msgs     0.015403                       # Average number of messages in buffer
system.ruby.dir_cntrl1.respFrom.avg_stall_time  3032.949519                       # Average number of cycles messages are stalled in this MB
system.ruby.dir_cntrl1.respTo.avg_buf_msgs     0.000015                       # Average number of messages in buffer
system.ruby.dir_cntrl1.respTo.avg_stall_time  9722.044282                       # Average number of cycles messages are stalled in this MB
system.ruby.dir_cntrl1.responseFromMemory.avg_buf_msgs     0.003296                       # Average number of messages in buffer
system.ruby.dir_cntrl1.responseFromMemory.avg_stall_time   499.999815                       # Average number of cycles messages are stalled in this MB
system.ruby.dir_cntrl2.fwdFrom.avg_buf_msgs     0.009470                       # Average number of messages in buffer
system.ruby.dir_cntrl2.fwdFrom.avg_stall_time  2999.921854                       # Average number of cycles messages are stalled in this MB
system.ruby.dir_cntrl2.reqTo.avg_buf_msgs     0.003946                       # Average number of messages in buffer
system.ruby.dir_cntrl2.reqTo.avg_stall_time  5371.783969                       # Average number of cycles messages are stalled in this MB
system.ruby.dir_cntrl2.requestToMemory.avg_buf_msgs     0.003254                       # Average number of messages in buffer
system.ruby.dir_cntrl2.requestToMemory.avg_stall_time   499.999694                       # Average number of cycles messages are stalled in this MB
system.ruby.dir_cntrl2.respFrom.avg_buf_msgs     0.016878                       # Average number of messages in buffer
system.ruby.dir_cntrl2.respFrom.avg_stall_time  3063.377486                       # Average number of cycles messages are stalled in this MB
system.ruby.dir_cntrl2.respTo.avg_buf_msgs     0.000017                       # Average number of messages in buffer
system.ruby.dir_cntrl2.respTo.avg_stall_time  9475.143408                       # Average number of cycles messages are stalled in this MB
system.ruby.dir_cntrl2.responseFromMemory.avg_buf_msgs     0.003261                       # Average number of messages in buffer
system.ruby.dir_cntrl2.responseFromMemory.avg_stall_time   499.999615                       # Average number of cycles messages are stalled in this MB
system.ruby.dir_cntrl3.fwdFrom.avg_buf_msgs     0.009503                       # Average number of messages in buffer
system.ruby.dir_cntrl3.fwdFrom.avg_stall_time  2999.950847                       # Average number of cycles messages are stalled in this MB
system.ruby.dir_cntrl3.reqTo.avg_buf_msgs     0.003954                       # Average number of messages in buffer
system.ruby.dir_cntrl3.reqTo.avg_stall_time  5402.854729                       # Average number of cycles messages are stalled in this MB
system.ruby.dir_cntrl3.requestToMemory.avg_buf_msgs     0.003259                       # Average number of messages in buffer
system.ruby.dir_cntrl3.requestToMemory.avg_stall_time   499.999994                       # Average number of cycles messages are stalled in this MB
system.ruby.dir_cntrl3.respFrom.avg_buf_msgs     0.017217                       # Average number of messages in buffer
system.ruby.dir_cntrl3.respFrom.avg_stall_time  3070.339380                       # Average number of cycles messages are stalled in this MB
system.ruby.dir_cntrl3.respTo.avg_buf_msgs     0.000011                       # Average number of messages in buffer
system.ruby.dir_cntrl3.respTo.avg_stall_time 10067.749602                       # Average number of cycles messages are stalled in this MB
system.ruby.dir_cntrl3.responseFromMemory.avg_buf_msgs     0.003266                       # Average number of messages in buffer
system.ruby.dir_cntrl3.responseFromMemory.avg_stall_time   499.999914                       # Average number of cycles messages are stalled in this MB
system.ruby.dma_cntrl0.cache.demand_accesses            0                       # Number of cache demand accesses
system.ruby.dma_cntrl0.cache.demand_hits            0                       # Number of cache demand hits
system.ruby.dma_cntrl0.cache.demand_misses            0                       # Number of cache demand misses
system.ruby.dma_cntrl0.fully_busy_cycles       126410                       # cycles for which number of transistions == max transitions
system.ruby.dma_cntrl0.fwdFrom.avg_buf_msgs     0.000131                       # Average number of messages in buffer
system.ruby.dma_cntrl0.fwdFrom.avg_stall_time  5875.545590                       # Average number of cycles messages are stalled in this MB
system.ruby.dma_cntrl0.mandatoryQueue.avg_buf_msgs     0.004786                       # Average number of messages in buffer
system.ruby.dma_cntrl0.mandatoryQueue.avg_stall_time 18398.071314                       # Average number of cycles messages are stalled in this MB
system.ruby.dma_cntrl0.reqTo.avg_buf_msgs     0.002560                       # Average number of messages in buffer
system.ruby.dma_cntrl0.reqTo.avg_stall_time   484.712717                       # Average number of cycles messages are stalled in this MB
system.ruby.dma_cntrl0.respFrom.avg_buf_msgs     0.000131                       # Average number of messages in buffer
system.ruby.dma_cntrl0.respFrom.avg_stall_time 100574.494381                       # Average number of cycles messages are stalled in this MB
system.ruby.dma_cntrl0.respTo.avg_buf_msgs     0.000002                       # Average number of messages in buffer
system.ruby.dma_cntrl0.respTo.avg_stall_time   768.910773                       # Average number of cycles messages are stalled in this MB
system.ruby.hit_latency_hist_seqr::bucket_size            1                      
system.ruby.hit_latency_hist_seqr::max_bucket            9                      
system.ruby.hit_latency_hist_seqr::samples   1541899845                      
system.ruby.hit_latency_hist_seqr        |  1541899845    100.00%    100.00% |           0      0.00%    100.00% |           0      0.00%    100.00% |           0      0.00%    100.00% |           0      0.00%    100.00% |           0      0.00%    100.00% |           0      0.00%    100.00% |           0      0.00%    100.00% |           0      0.00%    100.00% |           0      0.00%    100.00%
system.ruby.hit_latency_hist_seqr::total   1541899845                      
system.ruby.io_controller.cache.demand_accesses            0                       # Number of cache demand accesses
system.ruby.io_controller.cache.demand_hits            0                       # Number of cache demand hits
system.ruby.io_controller.cache.demand_misses            0                       # Number of cache demand misses
system.ruby.l1_cntrl0.cache.demand_accesses            0                       # Number of cache demand accesses
system.ruby.l1_cntrl0.cache.demand_hits             0                       # Number of cache demand hits
system.ruby.l1_cntrl0.cache.demand_misses            0                       # Number of cache demand misses
system.ruby.l1_cntrl0.fully_busy_cycles            22                       # cycles for which number of transistions == max transitions
system.ruby.l1_cntrl0.fwdFrom.avg_buf_msgs    10.813354                       # Average number of messages in buffer
system.ruby.l1_cntrl0.fwdFrom.avg_stall_time  6472.731935                       # Average number of cycles messages are stalled in this MB
system.ruby.l1_cntrl0.mandatoryQueue.avg_buf_msgs     0.413504                       # Average number of messages in buffer
system.ruby.l1_cntrl0.mandatoryQueue.avg_stall_time  2963.084352                       # Average number of cycles messages are stalled in this MB
system.ruby.l1_cntrl0.reqTo.avg_buf_msgs     0.004060                       # Average number of messages in buffer
system.ruby.l1_cntrl0.reqTo.avg_stall_time   499.999999                       # Average number of cycles messages are stalled in this MB
system.ruby.l1_cntrl0.respFrom.avg_buf_msgs     0.002430                       # Average number of messages in buffer
system.ruby.l1_cntrl0.respFrom.avg_stall_time 16510.101270                       # Average number of cycles messages are stalled in this MB
system.ruby.l1_cntrl0.respTo.avg_buf_msgs     0.000054                       # Average number of messages in buffer
system.ruby.l1_cntrl0.respTo.avg_stall_time  1000.313391                       # Average number of cycles messages are stalled in this MB
system.ruby.l1_cntrl1.cache.demand_accesses            0                       # Number of cache demand accesses
system.ruby.l1_cntrl1.cache.demand_hits             0                       # Number of cache demand hits
system.ruby.l1_cntrl1.cache.demand_misses            0                       # Number of cache demand misses
system.ruby.l1_cntrl1.fully_busy_cycles            38                       # cycles for which number of transistions == max transitions
system.ruby.l1_cntrl1.fwdFrom.avg_buf_msgs    15.429158                       # Average number of messages in buffer
system.ruby.l1_cntrl1.fwdFrom.avg_stall_time  6564.047664                       # Average number of cycles messages are stalled in this MB
system.ruby.l1_cntrl1.mandatoryQueue.avg_buf_msgs     0.418583                       # Average number of messages in buffer
system.ruby.l1_cntrl1.mandatoryQueue.avg_stall_time  2886.667411                       # Average number of cycles messages are stalled in this MB
system.ruby.l1_cntrl1.reqTo.avg_buf_msgs     0.003927                       # Average number of messages in buffer
system.ruby.l1_cntrl1.reqTo.avg_stall_time   499.999999                       # Average number of cycles messages are stalled in this MB
system.ruby.l1_cntrl1.respFrom.avg_buf_msgs     0.002367                       # Average number of messages in buffer
system.ruby.l1_cntrl1.respFrom.avg_stall_time 16486.683215                       # Average number of cycles messages are stalled in this MB
system.ruby.l1_cntrl1.respTo.avg_buf_msgs     0.000046                       # Average number of messages in buffer
system.ruby.l1_cntrl1.respTo.avg_stall_time   999.976562                       # Average number of cycles messages are stalled in this MB
system.ruby.l1_cntrl2.cache.demand_accesses            0                       # Number of cache demand accesses
system.ruby.l1_cntrl2.cache.demand_hits             0                       # Number of cache demand hits
system.ruby.l1_cntrl2.cache.demand_misses            0                       # Number of cache demand misses
system.ruby.l1_cntrl2.fully_busy_cycles            30                       # cycles for which number of transistions == max transitions
system.ruby.l1_cntrl2.fwdFrom.avg_buf_msgs    15.658785                       # Average number of messages in buffer
system.ruby.l1_cntrl2.fwdFrom.avg_stall_time  6418.638972                       # Average number of cycles messages are stalled in this MB
system.ruby.l1_cntrl2.mandatoryQueue.avg_buf_msgs     0.420595                       # Average number of messages in buffer
system.ruby.l1_cntrl2.mandatoryQueue.avg_stall_time  2871.916936                       # Average number of cycles messages are stalled in this MB
system.ruby.l1_cntrl2.reqTo.avg_buf_msgs     0.003859                       # Average number of messages in buffer
system.ruby.l1_cntrl2.reqTo.avg_stall_time   499.999999                       # Average number of cycles messages are stalled in this MB
system.ruby.l1_cntrl2.respFrom.avg_buf_msgs     0.002337                       # Average number of messages in buffer
system.ruby.l1_cntrl2.respFrom.avg_stall_time 16472.752219                       # Average number of cycles messages are stalled in this MB
system.ruby.l1_cntrl2.respTo.avg_buf_msgs     0.000032                       # Average number of messages in buffer
system.ruby.l1_cntrl2.respTo.avg_stall_time   999.566690                       # Average number of cycles messages are stalled in this MB
system.ruby.l1_cntrl3.cache.demand_accesses            0                       # Number of cache demand accesses
system.ruby.l1_cntrl3.cache.demand_hits             0                       # Number of cache demand hits
system.ruby.l1_cntrl3.cache.demand_misses            0                       # Number of cache demand misses
system.ruby.l1_cntrl3.fully_busy_cycles            18                       # cycles for which number of transistions == max transitions
system.ruby.l1_cntrl3.fwdFrom.avg_buf_msgs    72.907928                       # Average number of messages in buffer
system.ruby.l1_cntrl3.fwdFrom.avg_stall_time  6576.454131                       # Average number of cycles messages are stalled in this MB
system.ruby.l1_cntrl3.mandatoryQueue.avg_buf_msgs     0.419092                       # Average number of messages in buffer
system.ruby.l1_cntrl3.mandatoryQueue.avg_stall_time  2867.066759                       # Average number of cycles messages are stalled in this MB
system.ruby.l1_cntrl3.reqTo.avg_buf_msgs     0.003838                       # Average number of messages in buffer
system.ruby.l1_cntrl3.reqTo.avg_stall_time   499.286430                       # Average number of cycles messages are stalled in this MB
system.ruby.l1_cntrl3.respFrom.avg_buf_msgs     0.002334                       # Average number of messages in buffer
system.ruby.l1_cntrl3.respFrom.avg_stall_time 16567.169334                       # Average number of cycles messages are stalled in this MB
system.ruby.l1_cntrl3.respTo.avg_buf_msgs     0.000034                       # Average number of messages in buffer
system.ruby.l1_cntrl3.respTo.avg_stall_time   998.501291                       # Average number of cycles messages are stalled in this MB
system.ruby.latency_hist_seqr::bucket_size            1                      
system.ruby.latency_hist_seqr::max_bucket            9                      
system.ruby.latency_hist_seqr::samples     1551883827                      
system.ruby.latency_hist_seqr            |  1551883827    100.00%    100.00% |           0      0.00%    100.00% |           0      0.00%    100.00% |           0      0.00%    100.00% |           0      0.00%    100.00% |           0      0.00%    100.00% |           0      0.00%    100.00% |           0      0.00%    100.00% |           0      0.00%    100.00% |           0      0.00%    100.00%
system.ruby.latency_hist_seqr::total       1551883827                      
system.ruby.miss_latency_hist_seqr::bucket_size            1                      
system.ruby.miss_latency_hist_seqr::max_bucket            9                      
system.ruby.miss_latency_hist_seqr::samples      9983982                      
system.ruby.miss_latency_hist_seqr       |     9983982    100.00%    100.00% |           0      0.00%    100.00% |           0      0.00%    100.00% |           0      0.00%    100.00% |           0      0.00%    100.00% |           0      0.00%    100.00% |           0      0.00%    100.00% |           0      0.00%    100.00% |           0      0.00%    100.00% |           0      0.00%    100.00%
system.ruby.miss_latency_hist_seqr::total      9983982                      
system.ruby.network.average_flit_latency    17.869987                      
system.ruby.network.average_flit_network_latency    13.176754                      
system.ruby.network.average_flit_queueing_latency     4.693233                      
system.ruby.network.average_flit_vnet_latency |   15.697567                       |    5.008125                       |   10.894446                      
system.ruby.network.average_flit_vqueue_latency |    6.767247                       |    6.000001                       |    1.105702                      
system.ruby.network.average_hops             0.999850                      
system.ruby.network.average_packet_latency    17.247621                      
system.ruby.network.average_packet_network_latency    13.440306                      
system.ruby.network.average_packet_queueing_latency     3.807316                      
system.ruby.network.average_packet_vnet_latency |   25.622854                       |    5.008125                       |    9.457963                      
system.ruby.network.average_packet_vqueue_latency |    6.747357                       |    6.000001                       |    1.144130                      
system.ruby.network.avg_link_utilization     0.253957                      
system.ruby.network.avg_vc_load          |    0.106760     42.04%     42.04% |    0.012842      5.06%     47.10% |    0.012361      4.87%     51.96% |    0.012327      4.85%     56.82% |    0.014324      5.64%     62.46% |    0.001676      0.66%     63.12% |    0.001633      0.64%     63.76% |    0.001623      0.64%     64.40% |    0.066609     26.23%     90.63% |    0.008701      3.43%     94.05% |    0.007568      2.98%     97.03% |    0.007533      2.97%    100.00%
system.ruby.network.avg_vc_load::total       0.253957                      
system.ruby.network.ext_in_link_utilization     89439273                      
system.ruby.network.ext_out_link_utilization     89439273                      
system.ruby.network.flit_network_latency |   797612796                       |    33968130                       |   346938332                      
system.ruby.network.flit_queueing_latency |   343852189                       |    40695633                       |    35211560                      
system.ruby.network.flits_injected       |    50811237     56.81%     56.81% |     6782604      7.58%     64.39% |    31845432     35.61%    100.00%
system.ruby.network.flits_injected::total     89439273                      
system.ruby.network.flits_received       |    50811237     56.81%     56.81% |     6782604      7.58%     64.39% |    31845432     35.61%    100.00%
system.ruby.network.flits_received::total     89439273                      
system.ruby.network.int_link_utilization     89425827                      
system.ruby.network.packet_network_latency |   261390953                       |    33968130                       |   159331901                      
system.ruby.network.packet_queueing_latency |    68833005                       |    40695633                       |    19274388                      
system.ruby.network.packets_injected     |    10201477     30.15%     30.15% |     6782604     20.05%     50.20% |    16846324     49.80%    100.00%
system.ruby.network.packets_injected::total     33830405                      
system.ruby.network.packets_received     |    10201477     30.15%     30.15% |     6782604     20.05%     50.20% |    16846324     49.80%    100.00%
system.ruby.network.packets_received::total     33830405                      
system.ruby.network.routers0.buffer_reads     45838172                      
system.ruby.network.routers0.buffer_writes     45838172                      
system.ruby.network.routers0.crossbar_activity     45838172                      
system.ruby.network.routers0.sw_input_arbiter_activity     46261011                      
system.ruby.network.routers0.sw_output_arbiter_activity     45838172                      
system.ruby.network.routers1.buffer_reads     44584038                      
system.ruby.network.routers1.buffer_writes     44584038                      
system.ruby.network.routers1.crossbar_activity     44584038                      
system.ruby.network.routers1.sw_input_arbiter_activity     44654709                      
system.ruby.network.routers1.sw_output_arbiter_activity     44584038                      
system.ruby.network.routers2.buffer_reads     44369428                      
system.ruby.network.routers2.buffer_writes     44369428                      
system.ruby.network.routers2.crossbar_activity     44369428                      
system.ruby.network.routers2.sw_input_arbiter_activity     44516721                      
system.ruby.network.routers2.sw_output_arbiter_activity     44369428                      
system.ruby.network.routers3.buffer_reads     44073462                      
system.ruby.network.routers3.buffer_writes     44073462                      
system.ruby.network.routers3.crossbar_activity     44073462                      
system.ruby.network.routers3.sw_input_arbiter_activity     44141765                      
system.ruby.network.routers3.sw_output_arbiter_activity     44073462                      
system.ruby.outstanding_req_hist_seqr::bucket_size            1                      
system.ruby.outstanding_req_hist_seqr::max_bucket            9                      
system.ruby.outstanding_req_hist_seqr::samples   1551883828                      
system.ruby.outstanding_req_hist_seqr::mean     1.000000                      
system.ruby.outstanding_req_hist_seqr::gmean     1.000000                      
system.ruby.outstanding_req_hist_seqr::stdev     0.000132                      
system.ruby.outstanding_req_hist_seqr    |           0      0.00%      0.00% |  1551883801    100.00%    100.00% |          27      0.00%    100.00% |           0      0.00%    100.00% |           0      0.00%    100.00% |           0      0.00%    100.00% |           0      0.00%    100.00% |           0      0.00%    100.00% |           0      0.00%    100.00% |           0      0.00%    100.00%
system.ruby.outstanding_req_hist_seqr::total   1551883828                      
system.switch_cpus0.Branches                 16252937                       # Number of branches fetched
system.switch_cpus0.committedInsts          206006983                       # Number of instructions committed
system.switch_cpus0.committedOps            341004103                       # Number of ops (including micro ops) committed
system.switch_cpus0.dtb.rdAccesses           61542433                       # TLB accesses on read requests
system.switch_cpus0.dtb.rdMisses                46422                       # TLB misses on read requests
system.switch_cpus0.dtb.wrAccesses           18710360                       # TLB accesses on write requests
system.switch_cpus0.dtb.wrMisses                 4668                       # TLB misses on write requests
system.switch_cpus0.idle_fraction            0.007633                       # Percentage of idle cycles
system.switch_cpus0.itb.rdAccesses                  0                       # TLB accesses on read requests
system.switch_cpus0.itb.rdMisses                    0                       # TLB misses on read requests
system.switch_cpus0.itb.wrAccesses          301655981                       # TLB accesses on write requests
system.switch_cpus0.itb.wrMisses                 6812                       # TLB misses on write requests
system.switch_cpus0.kern.inst.arm                   0                       # number of arm instructions executed
system.switch_cpus0.kern.inst.quiesce               0                       # number of quiesce instructions executed
system.switch_cpus0.not_idle_fraction        0.992367                       # Percentage of non-idle cycles
system.switch_cpus0.numCycles              1056494228                       # number of cpu cycles simulated
system.switch_cpus0.numWorkItemsCompleted            0                       # number of work items this cpu completed
system.switch_cpus0.numWorkItemsStarted             0                       # number of work items this cpu started
system.switch_cpus0.num_busy_cycles      1048429760.007664                       # Number of busy cycles
system.switch_cpus0.num_cc_register_reads    102482782                       # number of times the CC registers were read
system.switch_cpus0.num_cc_register_writes     58492700                       # number of times the CC registers were written
system.switch_cpus0.num_conditional_control_insts     14661149                       # number of instructions that are conditional controls
system.switch_cpus0.num_fp_alu_accesses     217262719                       # Number of float alu accesses
system.switch_cpus0.num_fp_insts            217262719                       # number of float instructions
system.switch_cpus0.num_fp_register_reads    387083249                       # number of times the floating registers were read
system.switch_cpus0.num_fp_register_writes    204693351                       # number of times the floating registers were written
system.switch_cpus0.num_func_calls            1238967                       # number of times a function call or return occured
system.switch_cpus0.num_idle_cycles      8064467.992336                       # Number of idle cycles
system.switch_cpus0.num_int_alu_accesses    181122324                       # Number of integer alu accesses
system.switch_cpus0.num_int_insts           181122324                       # number of integer instructions
system.switch_cpus0.num_int_register_reads    398860980                       # number of times the integer registers were read
system.switch_cpus0.num_int_register_writes    101210767                       # number of times the integer registers were written
system.switch_cpus0.num_load_insts           61497113                       # Number of load instructions
system.switch_cpus0.num_mem_refs             80206846                       # number of memory refs
system.switch_cpus0.num_store_insts          18709733                       # Number of store instructions
system.switch_cpus0.num_vec_alu_accesses            0                       # Number of vector alu accesses
system.switch_cpus0.num_vec_insts                   0                       # number of vector instructions
system.switch_cpus0.num_vec_register_reads            0                       # number of times the vector registers were read
system.switch_cpus0.num_vec_register_writes            0                       # number of times the vector registers were written
system.switch_cpus0.op_class::No_OpClass       509511      0.15%      0.15% # Class of executed instruction
system.switch_cpus0.op_class::IntAlu        136490796     40.03%     40.18% # Class of executed instruction
system.switch_cpus0.op_class::IntMult          114309      0.03%     40.21% # Class of executed instruction
system.switch_cpus0.op_class::IntDiv           101016      0.03%     40.24% # Class of executed instruction
system.switch_cpus0.op_class::FloatAdd       22421754      6.58%     46.81% # Class of executed instruction
system.switch_cpus0.op_class::FloatCmp              0      0.00%     46.81% # Class of executed instruction
system.switch_cpus0.op_class::FloatCvt           1184      0.00%     46.81% # Class of executed instruction
system.switch_cpus0.op_class::FloatMult             0      0.00%     46.81% # Class of executed instruction
system.switch_cpus0.op_class::FloatMultAcc            0      0.00%     46.81% # Class of executed instruction
system.switch_cpus0.op_class::FloatDiv              0      0.00%     46.81% # Class of executed instruction
system.switch_cpus0.op_class::FloatMisc             0      0.00%     46.81% # Class of executed instruction
system.switch_cpus0.op_class::FloatSqrt             0      0.00%     46.81% # Class of executed instruction
system.switch_cpus0.op_class::SimdAdd             466      0.00%     46.81% # Class of executed instruction
system.switch_cpus0.op_class::SimdAddAcc            0      0.00%     46.81% # Class of executed instruction
system.switch_cpus0.op_class::SimdAlu           18472      0.01%     46.82% # Class of executed instruction
system.switch_cpus0.op_class::SimdCmp               0      0.00%     46.82% # Class of executed instruction
system.switch_cpus0.op_class::SimdCvt             248      0.00%     46.82% # Class of executed instruction
system.switch_cpus0.op_class::SimdMisc            286      0.00%     46.82% # Class of executed instruction
system.switch_cpus0.op_class::SimdMult              0      0.00%     46.82% # Class of executed instruction
system.switch_cpus0.op_class::SimdMultAcc            0      0.00%     46.82% # Class of executed instruction
system.switch_cpus0.op_class::SimdShift           222      0.00%     46.82% # Class of executed instruction
system.switch_cpus0.op_class::SimdShiftAcc            0      0.00%     46.82% # Class of executed instruction
system.switch_cpus0.op_class::SimdDiv               0      0.00%     46.82% # Class of executed instruction
system.switch_cpus0.op_class::SimdSqrt              0      0.00%     46.82% # Class of executed instruction
system.switch_cpus0.op_class::SimdFloatAdd     50802005     14.90%     61.72% # Class of executed instruction
system.switch_cpus0.op_class::SimdFloatAlu            0      0.00%     61.72% # Class of executed instruction
system.switch_cpus0.op_class::SimdFloatCmp            0      0.00%     61.72% # Class of executed instruction
system.switch_cpus0.op_class::SimdFloatCvt         5553      0.00%     61.72% # Class of executed instruction
system.switch_cpus0.op_class::SimdFloatDiv        17929      0.01%     61.72% # Class of executed instruction
system.switch_cpus0.op_class::SimdFloatMisc            0      0.00%     61.72% # Class of executed instruction
system.switch_cpus0.op_class::SimdFloatMult     50309926     14.75%     76.48% # Class of executed instruction
system.switch_cpus0.op_class::SimdFloatMultAcc            0      0.00%     76.48% # Class of executed instruction
system.switch_cpus0.op_class::SimdFloatSqrt         3931      0.00%     76.48% # Class of executed instruction
system.switch_cpus0.op_class::SimdReduceAdd            0      0.00%     76.48% # Class of executed instruction
system.switch_cpus0.op_class::SimdReduceAlu            0      0.00%     76.48% # Class of executed instruction
system.switch_cpus0.op_class::SimdReduceCmp            0      0.00%     76.48% # Class of executed instruction
system.switch_cpus0.op_class::SimdFloatReduceAdd            0      0.00%     76.48% # Class of executed instruction
system.switch_cpus0.op_class::SimdFloatReduceCmp            0      0.00%     76.48% # Class of executed instruction
system.switch_cpus0.op_class::SimdAes               0      0.00%     76.48% # Class of executed instruction
system.switch_cpus0.op_class::SimdAesMix            0      0.00%     76.48% # Class of executed instruction
system.switch_cpus0.op_class::SimdSha1Hash            0      0.00%     76.48% # Class of executed instruction
system.switch_cpus0.op_class::SimdSha1Hash2            0      0.00%     76.48% # Class of executed instruction
system.switch_cpus0.op_class::SimdSha256Hash            0      0.00%     76.48% # Class of executed instruction
system.switch_cpus0.op_class::SimdSha256Hash2            0      0.00%     76.48% # Class of executed instruction
system.switch_cpus0.op_class::SimdShaSigma2            0      0.00%     76.48% # Class of executed instruction
system.switch_cpus0.op_class::SimdShaSigma3            0      0.00%     76.48% # Class of executed instruction
system.switch_cpus0.op_class::SimdPredAlu            0      0.00%     76.48% # Class of executed instruction
system.switch_cpus0.op_class::MemRead        15914398      4.67%     81.15% # Class of executed instruction
system.switch_cpus0.op_class::MemWrite        6147194      1.80%     82.95% # Class of executed instruction
system.switch_cpus0.op_class::FloatMemRead     45582715     13.37%     96.32% # Class of executed instruction
[...]
system.mem_ctrls1.llc.tags.warmup_cycle  99122445980500                       # Cycle when the warmup percentage was hit.
system.mem_ctrls1.llc.tags.occ_blocks::.ruby.dir_cntrl1 97214.030516                       # Average occupied blocks per requestor
system.mem_ctrls1.llc.tags.occ_percent::.ruby.dir_cntrl1     0.370842                       # Average percentage of cache occupancy
system.mem_ctrls1.llc.tags.occ_percent::total     0.370842                       # Average percentage of cache occupancy
system.mem_ctrls1.llc.tags.occ_task_id_blocks::1024       133429                       # Occupied blocks per task id
system.mem_ctrls1.llc.tags.age_task_id_blocks_1024::0           14                       # Occupied blocks per task id
system.mem_ctrls1.llc.tags.age_task_id_blocks_1024::1           77                       # Occupied blocks per task id
system.mem_ctrls1.llc.tags.age_task_id_blocks_1024::2          439                       # Occupied blocks per task id
system.mem_ctrls1.llc.tags.age_task_id_blocks_1024::3            3                       # Occupied blocks per task id
system.mem_ctrls1.llc.tags.age_task_id_blocks_1024::4       132896                       # Occupied blocks per task id
system.mem_ctrls1.llc.tags.occ_task_id_percent::1024     0.508991                       # Percentage of cache occupancy per task id
system.mem_ctrls1.llc.tags.tag_accesses      55729221                       # Number of tag accesses
system.mem_ctrls1.llc.tags.data_accesses      3474737                       # Number of data accesses
system.mem_ctrls1.llc.tags.power_state.pwrStateResidencyTicks::UNDEFINED 99650692921001                       # Cumulative time (in ticks) in various power states
system.mem_ctrls1.rank1.actEnergy           101002440                       # Energy for activate commands per rank (pJ)
system.mem_ctrls1.rank1.preEnergy            53676480                       # Energy for precharge commands per rank (pJ)
system.mem_ctrls1.rank1.readEnergy          478365720                       # Energy for read commands per rank (pJ)
system.mem_ctrls1.rank1.writeEnergy                 0                       # Energy for write commands per rank (pJ)
system.mem_ctrls1.rank1.refreshEnergy    41699021520.000008                       # Energy for refresh commands per rank (pJ)
system.mem_ctrls1.rank1.actBackEnergy     32075865360                       # Energy for active background per rank (pJ)
system.mem_ctrls1.rank1.preBackEnergy    175835545920                       # Energy for precharge background per rank (pJ)
system.mem_ctrls1.rank1.actPowerDownEnergy            0                       # Energy for active power-down per rank (pJ)
system.mem_ctrls1.rank1.prePowerDownEnergy            0                       # Energy for precharge power-down per rank (pJ)
system.mem_ctrls1.rank1.selfRefreshEnergy            0                       # Energy for self refresh per rank (pJ)
system.mem_ctrls1.rank1.totalEnergy      250243477440                       # Total energy per rank (pJ)
system.mem_ctrls1.rank1.averagePower       473.724268                       # Core power per rank (mW)
system.mem_ctrls1.rank1.totalIdleTime               0                       # Total Idle time Per DRAM Rank
system.mem_ctrls1.rank1.memoryStateTime::IDLE 456826632001                       # Time in different power states
system.mem_ctrls1.rank1.memoryStateTime::REF  17639180000                       # Time in different power states
system.mem_ctrls1.rank1.memoryStateTime::SREF            0                       # Time in different power states
system.mem_ctrls1.rank1.memoryStateTime::PRE_PDN            0                       # Time in different power states
system.mem_ctrls1.rank1.memoryStateTime::ACT  53781302500                       # Time in different power states
system.mem_ctrls1.rank1.memoryStateTime::ACT_PDN            0                       # Time in different power states
system.mem_ctrls1.rank0.actEnergy            96482820                       # Energy for activate commands per rank (pJ)
system.mem_ctrls1.rank0.preEnergy            51270450                       # Energy for precharge commands per rank (pJ)
system.mem_ctrls1.rank0.readEnergy          474317340                       # Energy for read commands per rank (pJ)
system.mem_ctrls1.rank0.writeEnergy                 0                       # Energy for write commands per rank (pJ)
system.mem_ctrls1.rank0.refreshEnergy    41699021520.000008                       # Energy for refresh commands per rank (pJ)
system.mem_ctrls1.rank0.actBackEnergy     31604673720                       # Energy for active background per rank (pJ)
system.mem_ctrls1.rank0.preBackEnergy    176232383040                       # Energy for precharge background per rank (pJ)
system.mem_ctrls1.rank0.actPowerDownEnergy            0                       # Energy for active power-down per rank (pJ)
system.mem_ctrls1.rank0.prePowerDownEnergy            0                       # Energy for precharge power-down per rank (pJ)
system.mem_ctrls1.rank0.selfRefreshEnergy            0                       # Energy for self refresh per rank (pJ)
system.mem_ctrls1.rank0.totalEnergy      250158148890                       # Total energy per rank (pJ)
system.mem_ctrls1.rank0.averagePower       473.562736                       # Core power per rank (mW)
system.mem_ctrls1.rank0.totalIdleTime               0                       # Total Idle time Per DRAM Rank
system.mem_ctrls1.rank0.memoryStateTime::IDLE 457866721252                       # Time in different power states
system.mem_ctrls1.rank0.memoryStateTime::REF  17639180000                       # Time in different power states
system.mem_ctrls1.rank0.memoryStateTime::SREF            0                       # Time in different power states
system.mem_ctrls1.rank0.memoryStateTime::PRE_PDN            0                       # Time in different power states
system.mem_ctrls1.rank0.memoryStateTime::ACT  52741213249                       # Time in different power states
system.mem_ctrls1.rank0.memoryStateTime::ACT_PDN            0                       # Time in different power states
system.mem_ctrls1.power_state.pwrStateResidencyTicks::UNDEFINED 99650692921001                       # Cumulative time (in ticks) in various power states
system.cpu_voltage_domain.voltage                   1                       # Voltage in Volts
system.iobus.trans_dist::ReadReq                 3653                       # Transaction distribution
system.iobus.trans_dist::ReadResp                3653                       # Transaction distribution
system.iobus.trans_dist::WriteReq                8011                       # Transaction distribution
system.iobus.trans_dist::WriteResp               8011                       # Transaction distribution
system.iobus.pkt_count_system.pc.south_bridge.io_apic.int_master::system.ruby.l1_cntrl1.sequencer.pio-slave-port         1468                       # Packet count per connected master and slave (bytes)
system.iobus.pkt_count_system.pc.south_bridge.io_apic.int_master::total         1468                       # Packet count per connected master and slave (bytes)
system.iobus.pkt_count_system.ruby.l1_cntrl0.sequencer.mem-master-port::system.pc.south_bridge.ide.pio         9452                       # Packet count per connected master and slave (bytes)
system.iobus.pkt_count_system.ruby.l1_cntrl0.sequencer.mem-master-port::system.pc.com_1.pio            2                       # Packet count per connected master and slave (bytes)
system.iobus.pkt_count_system.ruby.l1_cntrl0.sequencer.mem-master-port::system.ruby.l1_cntrl0.sequencer.pio-slave-port         1188                       # Packet count per connected master and slave (bytes)
system.iobus.pkt_count_system.ruby.l1_cntrl0.sequencer.mem-master-port::system.ruby.l1_cntrl1.sequencer.pio-slave-port           10                       # Packet count per connected master and slave (bytes)
system.iobus.pkt_count_system.ruby.l1_cntrl0.sequencer.mem-master-port::system.ruby.l1_cntrl2.sequencer.pio-slave-port            8                       # Packet count per connected master and slave (bytes)
system.iobus.pkt_count_system.ruby.l1_cntrl0.sequencer.mem-master-port::system.ruby.l1_cntrl3.sequencer.pio-slave-port            6                       # Packet count per connected master and slave (bytes)
system.iobus.pkt_count_system.ruby.l1_cntrl0.sequencer.mem-master-port::total        10666                       # Packet count per connected master and slave (bytes)
system.iobus.pkt_count_system.ruby.l1_cntrl1.sequencer.mem-master-port::system.pc.south_bridge.ide.pio         3348                       # Packet count per connected master and slave (bytes)
system.iobus.pkt_count_system.ruby.l1_cntrl1.sequencer.mem-master-port::system.pc.com_1.pio         3638                       # Packet count per connected master and slave (bytes)
system.iobus.pkt_count_system.ruby.l1_cntrl1.sequencer.mem-master-port::system.ruby.l1_cntrl0.sequencer.pio-slave-port           66                       # Packet count per connected master and slave (bytes)
system.iobus.pkt_count_system.ruby.l1_cntrl1.sequencer.mem-master-port::system.ruby.l1_cntrl1.sequencer.pio-slave-port         1832                       # Packet count per connected master and slave (bytes)
system.iobus.pkt_count_system.ruby.l1_cntrl1.sequencer.mem-master-port::system.ruby.l1_cntrl3.sequencer.pio-slave-port            2                       # Packet count per connected master and slave (bytes)
system.iobus.pkt_count_system.ruby.l1_cntrl1.sequencer.mem-master-port::total         8886                       # Packet count per connected master and slave (bytes)
system.iobus.pkt_count_system.ruby.l1_cntrl2.sequencer.mem-master-port::system.pc.south_bridge.ide.pio           34                       # Packet count per connected master and slave (bytes)
system.iobus.pkt_count_system.ruby.l1_cntrl2.sequencer.mem-master-port::system.ruby.l1_cntrl0.sequencer.pio-slave-port            8                       # Packet count per connected master and slave (bytes)
system.iobus.pkt_count_system.ruby.l1_cntrl2.sequencer.mem-master-port::system.ruby.l1_cntrl1.sequencer.pio-slave-port            4                       # Packet count per connected master and slave (bytes)
system.iobus.pkt_count_system.ruby.l1_cntrl2.sequencer.mem-master-port::system.ruby.l1_cntrl2.sequencer.pio-slave-port         1140                       # Packet count per connected master and slave (bytes)
system.iobus.pkt_count_system.ruby.l1_cntrl2.sequencer.mem-master-port::system.ruby.l1_cntrl3.sequencer.pio-slave-port           12                       # Packet count per connected master and slave (bytes)
system.iobus.pkt_count_system.ruby.l1_cntrl2.sequencer.mem-master-port::total         1198                       # Packet count per connected master and slave (bytes)
system.iobus.pkt_count_system.ruby.l1_cntrl3.sequencer.mem-master-port::system.ruby.l1_cntrl0.sequencer.pio-slave-port            6                       # Packet count per connected master and slave (bytes)
system.iobus.pkt_count_system.ruby.l1_cntrl3.sequencer.mem-master-port::system.ruby.l1_cntrl1.sequencer.pio-slave-port            2                       # Packet count per connected master and slave (bytes)
system.iobus.pkt_count_system.ruby.l1_cntrl3.sequencer.mem-master-port::system.ruby.l1_cntrl2.sequencer.pio-slave-port            2                       # Packet count per connected master and slave (bytes)
system.iobus.pkt_count_system.ruby.l1_cntrl3.sequencer.mem-master-port::system.ruby.l1_cntrl3.sequencer.pio-slave-port         1100                       # Packet count per connected master and slave (bytes)
system.iobus.pkt_count_system.ruby.l1_cntrl3.sequencer.mem-master-port::total         1110                       # Packet count per connected master and slave (bytes)
system.iobus.pkt_count::total                   23328                       # Packet count per connected master and slave (bytes)
system.iobus.pkt_size_system.pc.south_bridge.io_apic.int_master::system.ruby.l1_cntrl1.sequencer.pio-slave-port         2936                       # Cumulative packet size per connected master and slave (bytes)
system.iobus.pkt_size_system.pc.south_bridge.io_apic.int_master::total         2936                       # Cumulative packet size per connected master and slave (bytes)
system.iobus.pkt_size_system.ruby.l1_cntrl0.sequencer.mem-master-port::system.pc.south_bridge.ide.pio         5560                       # Cumulative packet size per connected master and slave (bytes)
system.iobus.pkt_size_system.ruby.l1_cntrl0.sequencer.mem-master-port::system.pc.com_1.pio            1                       # Cumulative packet size per connected master and slave (bytes)
system.iobus.pkt_size_system.ruby.l1_cntrl0.sequencer.mem-master-port::system.ruby.l1_cntrl0.sequencer.pio-slave-port         2376                       # Cumulative packet size per connected master and slave (bytes)
system.iobus.pkt_size_system.ruby.l1_cntrl0.sequencer.mem-master-port::system.ruby.l1_cntrl1.sequencer.pio-slave-port           20                       # Cumulative packet size per connected master and slave (bytes)
system.iobus.pkt_size_system.ruby.l1_cntrl0.sequencer.mem-master-port::system.ruby.l1_cntrl2.sequencer.pio-slave-port           16                       # Cumulative packet size per connected master and slave (bytes)
system.iobus.pkt_size_system.ruby.l1_cntrl0.sequencer.mem-master-port::system.ruby.l1_cntrl3.sequencer.pio-slave-port           12                       # Cumulative packet size per connected master and slave (bytes)
system.iobus.pkt_size_system.ruby.l1_cntrl0.sequencer.mem-master-port::total         7985                       # Cumulative packet size per connected master and slave (bytes)
system.iobus.pkt_size_system.ruby.l1_cntrl1.sequencer.mem-master-port::system.pc.south_bridge.ide.pio         1674                       # Cumulative packet size per connected master and slave (bytes)
system.iobus.pkt_size_system.ruby.l1_cntrl1.sequencer.mem-master-port::system.pc.com_1.pio         1819                       # Cumulative packet size per connected master and slave (bytes)
system.iobus.pkt_size_system.ruby.l1_cntrl1.sequencer.mem-master-port::system.ruby.l1_cntrl0.sequencer.pio-slave-port          132                       # Cumulative packet size per connected master and slave (bytes)
system.iobus.pkt_size_system.ruby.l1_cntrl1.sequencer.mem-master-port::system.ruby.l1_cntrl1.sequencer.pio-slave-port         3664                       # Cumulative packet size per connected master and slave (bytes)
system.iobus.pkt_size_system.ruby.l1_cntrl1.sequencer.mem-master-port::system.ruby.l1_cntrl3.sequencer.pio-slave-port            4                       # Cumulative packet size per connected master and slave (bytes)
system.iobus.pkt_size_system.ruby.l1_cntrl1.sequencer.mem-master-port::total         7293                       # Cumulative packet size per connected master and slave (bytes)
system.iobus.pkt_size_system.ruby.l1_cntrl2.sequencer.mem-master-port::system.pc.south_bridge.ide.pio           20                       # Cumulative packet size per connected master and slave (bytes)
system.iobus.pkt_size_system.ruby.l1_cntrl2.sequencer.mem-master-port::system.ruby.l1_cntrl0.sequencer.pio-slave-port           16                       # Cumulative packet size per connected master and slave (bytes)
system.iobus.pkt_size_system.ruby.l1_cntrl2.sequencer.mem-master-port::system.ruby.l1_cntrl1.sequencer.pio-slave-port            8                       # Cumulative packet size per connected master and slave (bytes)
system.iobus.pkt_size_system.ruby.l1_cntrl2.sequencer.mem-master-port::system.ruby.l1_cntrl2.sequencer.pio-slave-port         2280                       # Cumulative packet size per connected master and slave (bytes)
system.iobus.pkt_size_system.ruby.l1_cntrl2.sequencer.mem-master-port::system.ruby.l1_cntrl3.sequencer.pio-slave-port           24                       # Cumulative packet size per connected master and slave (bytes)
system.iobus.pkt_size_system.ruby.l1_cntrl2.sequencer.mem-master-port::total         2348                       # Cumulative packet size per connected master and slave (bytes)
system.iobus.pkt_size_system.ruby.l1_cntrl3.sequencer.mem-master-port::system.ruby.l1_cntrl0.sequencer.pio-slave-port           12                       # Cumulative packet size per connected master and slave (bytes)
system.iobus.pkt_size_system.ruby.l1_cntrl3.sequencer.mem-master-port::system.ruby.l1_cntrl1.sequencer.pio-slave-port            4                       # Cumulative packet size per connected master and slave (bytes)
system.iobus.pkt_size_system.ruby.l1_cntrl3.sequencer.mem-master-port::system.ruby.l1_cntrl2.sequencer.pio-slave-port            4                       # Cumulative packet size per connected master and slave (bytes)
system.iobus.pkt_size_system.ruby.l1_cntrl3.sequencer.mem-master-port::system.ruby.l1_cntrl3.sequencer.pio-slave-port         2200                       # Cumulative packet size per connected master and slave (bytes)
system.iobus.pkt_size_system.ruby.l1_cntrl3.sequencer.mem-master-port::total         2220                       # Cumulative packet size per connected master and slave (bytes)
system.iobus.pkt_size::total                    22782                       # Cumulative packet size per connected master and slave (bytes)
system.iobus.reqLayer2.occupancy             10650500                       # Layer occupancy (ticks)
system.iobus.reqLayer2.utilization                0.0                       # Layer utilization (%)
system.iobus.power_state.pwrStateResidencyTicks::UNDEFINED 99650692921001                       # Cumulative time (in ticks) in various power states
system.iobus.reqLayer19.occupancy             1417460                       # Layer occupancy (ticks)
system.iobus.reqLayer19.utilization               0.0                       # Layer utilization (%)
system.iobus.reqLayer17.occupancy             1551464                       # Layer occupancy (ticks)
system.iobus.reqLayer17.utilization               0.0                       # Layer utilization (%)
system.iobus.reqLayer12.occupancy             2298000                       # Layer occupancy (ticks)
system.iobus.reqLayer12.utilization               0.0                       # Layer utilization (%)
system.iobus.reqLayer18.occupancy             3908923                       # Layer occupancy (ticks)
system.iobus.reqLayer18.utilization               0.0                       # Layer utilization (%)
system.iobus.respLayer9.occupancy              834000                       # Layer occupancy (ticks)
system.iobus.respLayer9.utilization               0.0                       # Layer utilization (%)
system.iobus.respLayer5.occupancy             7413000                       # Layer occupancy (ticks)
system.iobus.respLayer5.utilization               0.0                       # Layer utilization (%)
system.iobus.respLayer7.occupancy              900000                       # Layer occupancy (ticks)
system.iobus.respLayer7.utilization               0.0                       # Layer utilization (%)
system.iobus.respLayer0.occupancy             1163221                       # Layer occupancy (ticks)
system.iobus.respLayer0.utilization               0.0                       # Layer utilization (%)
system.iobus.respLayer3.occupancy             6750500                       # Layer occupancy (ticks)
system.iobus.respLayer3.utilization               0.0                       # Layer utilization (%)
system.iobus.reqLayer20.occupancy             1394960                       # Layer occupancy (ticks)
system.iobus.reqLayer20.utilization               0.0                       # Layer utilization (%)

---------- End Simulation Statistics   ----------
