
---------- Begin Simulation Statistics ----------
final_tick                               98395754785501                       # Number of ticks from beginning of simulation (restored from checkpoints and never reset)
host_inst_rate                                1082928                       # Simulator instruction rate (inst/s)
host_mem_usage                                1267444                       # Number of bytes of host memory used
host_op_rate                                  1315810                       # Simulator op (including micro ops) rate (op/s)
host_seconds                                  6115.12                       # Real time elapsed on the host
host_tick_rate                              167109404                       # Simulator tick rate (ticks/s)
sim_freq                                 1000000000000                       # Frequency of simulated ticks
sim_insts                                  6622229899                       # Number of instructions simulated
sim_ops                                    8046329972                       # Number of ops (including micro ops) simulated
sim_seconds                                  1.021893                       # Number of seconds simulated
sim_ticks                                1021893359001                       # Number of ticks simulated
system.cpu0.committedInsts                          0                       # Number of instructions committed
system.cpu0.dtb.rdAccesses                          0                       # TLB accesses on read requests
system.cpu0.dtb.rdMisses                            0                       # TLB misses on read requests
system.cpu0.dtb.wrAccesses                          0                       # TLB accesses on write requests
system.cpu0.dtb.wrMisses                            0                       # TLB misses on write requests
system.cpu0.itb.rdAccesses                          0                       # TLB accesses on read requests
system.cpu0.itb.rdMisses                            0                       # TLB misses on read requests
system.cpu0.itb.wrAccesses                          0                       # TLB accesses on write requests
system.cpu0.itb.wrMisses                            0                       # TLB misses on write requests
system.cpu0.kern.inst.arm                           0                       # number of arm instructions executed
system.cpu0.kern.inst.quiesce                       0                       # number of quiesce instructions executed
system.cpu0.numCoalescedMMIO                        0                       # number of coalesced memory mapped IO requests
system.cpu0.numCycles                               0                       # number of cpu cycles simulated
system.cpu0.numExitSignal                           0                       # exits due to signal delivery
system.cpu0.numHalt                                 0                       # number of VM exits due to wait for interrupt instructions
system.cpu0.numHypercalls                           0                       # number of hypercalls
system.cpu0.numIO                                   0                       # number of VM exits due to legacy IO
system.cpu0.numInterrupts                           0                       # number of interrupts delivered
system.cpu0.numMMIO                                 0                       # number of VM exits due to memory mapped IO
system.cpu0.numVMExits                              0                       # total number of KVM exits
system.cpu0.numVMHalfEntries                        0                       # number of KVM entries to finalize pending operations
system.cpu0.numWorkItemsCompleted                   0                       # number of work items this cpu completed
system.cpu0.numWorkItemsStarted                     0                       # number of work items this cpu started
system.cpu1.committedInsts                          0                       # Number of instructions committed
system.cpu1.dtb.rdAccesses                          0                       # TLB accesses on read requests
system.cpu1.dtb.rdMisses                            0                       # TLB misses on read requests
system.cpu1.dtb.wrAccesses                          0                       # TLB accesses on write requests
system.cpu1.dtb.wrMisses                            0                       # TLB misses on write requests
system.cpu1.itb.rdAccesses                          0                       # TLB accesses on read requests
system.cpu1.itb.rdMisses                            0                       # TLB misses on read requests
system.cpu1.itb.wrAccesses                          0                       # TLB accesses on write requests
system.cpu1.itb.wrMisses                            0                       # TLB misses on write requests
system.cpu1.kern.inst.arm                           0                       # number of arm instructions executed
system.cpu1.kern.inst.quiesce                       0                       # number of quiesce instructions executed
system.cpu1.numCoalescedMMIO                        0                       # number of coalesced memory mapped IO requests
system.cpu1.numCycles                               0                       # number of cpu cycles simulated
system.cpu1.numExitSignal                           0                       # exits due to signal delivery
system.cpu1.numHalt                                 0                       # number of VM exits due to wait for interrupt instructions
system.cpu1.numHypercalls                           0                       # number of hypercalls
system.cpu1.numIO                                   0                       # number of VM exits due to legacy IO
system.cpu1.numInterrupts                           0                       # number of interrupts delivered
system.cpu1.numMMIO                                 0                       # number of VM exits due to memory mapped IO
system.cpu1.numVMExits                              0                       # total number of KVM exits
system.cpu1.numVMHalfEntries                        0                       # number of KVM entries to finalize pending operations
system.cpu1.numWorkItemsCompleted                   0                       # number of work items this cpu completed
system.cpu1.numWorkItemsStarted                     0                       # number of work items this cpu started
system.cpu2.committedInsts                          0                       # Number of instructions committed
system.cpu2.dtb.rdAccesses                          0                       # TLB accesses on read requests
system.cpu2.dtb.rdMisses                            0                       # TLB misses on read requests
system.cpu2.dtb.wrAccesses                          0                       # TLB accesses on write requests
system.cpu2.dtb.wrMisses                            0                       # TLB misses on write requests
system.cpu2.itb.rdAccesses                          0                       # TLB accesses on read requests
system.cpu2.itb.rdMisses                            0                       # TLB misses on read requests
system.cpu2.itb.wrAccesses                          0                       # TLB accesses on write requests
system.cpu2.itb.wrMisses                            0                       # TLB misses on write requests
system.cpu2.kern.inst.arm                           0                       # number of arm instructions executed
system.cpu2.kern.inst.quiesce                       0                       # number of quiesce instructions executed
system.cpu2.numCoalescedMMIO                        0                       # number of coalesced memory mapped IO requests
system.cpu2.numCycles                               0                       # number of cpu cycles simulated
system.cpu2.numExitSignal                           0                       # exits due to signal delivery
system.cpu2.numHalt                                 0                       # number of VM exits due to wait for interrupt instructions
system.cpu2.numHypercalls                           0                       # number of hypercalls
system.cpu2.numIO                                   0                       # number of VM exits due to legacy IO
system.cpu2.numInterrupts                           0                       # number of interrupts delivered
system.cpu2.numMMIO                                 0                       # number of VM exits due to memory mapped IO
system.cpu2.numVMExits                              0                       # total number of KVM exits
system.cpu2.numVMHalfEntries                        0                       # number of KVM entries to finalize pending operations
system.cpu2.numWorkItemsCompleted                   0                       # number of work items this cpu completed
system.cpu2.numWorkItemsStarted                     0                       # number of work items this cpu started
system.cpu3.committedInsts                          0                       # Number of instructions committed
system.cpu3.dtb.rdAccesses                          0                       # TLB accesses on read requests
system.cpu3.dtb.rdMisses                            0                       # TLB misses on read requests
system.cpu3.dtb.wrAccesses                          0                       # TLB accesses on write requests
system.cpu3.dtb.wrMisses                            0                       # TLB misses on write requests
system.cpu3.itb.rdAccesses                          0                       # TLB accesses on read requests
system.cpu3.itb.rdMisses                            0                       # TLB misses on read requests
system.cpu3.itb.wrAccesses                          0                       # TLB accesses on write requests
system.cpu3.itb.wrMisses                            0                       # TLB misses on write requests
system.cpu3.kern.inst.arm                           0                       # number of arm instructions executed
system.cpu3.kern.inst.quiesce                       0                       # number of quiesce instructions executed
system.cpu3.numCoalescedMMIO                        0                       # number of coalesced memory mapped IO requests
system.cpu3.numCycles                               0                       # number of cpu cycles simulated
system.cpu3.numExitSignal                           0                       # exits due to signal delivery
system.cpu3.numHalt                                 0                       # number of VM exits due to wait for interrupt instructions
system.cpu3.numHypercalls                           0                       # number of hypercalls
system.cpu3.numIO                                   0                       # number of VM exits due to legacy IO
system.cpu3.numInterrupts                           0                       # number of interrupts delivered
system.cpu3.numMMIO                                 0                       # number of VM exits due to memory mapped IO
system.cpu3.numVMExits                              0                       # total number of KVM exits
system.cpu3.numVMHalfEntries                        0                       # number of KVM entries to finalize pending operations
system.cpu3.numWorkItemsCompleted                   0                       # number of work items this cpu completed
system.cpu3.numWorkItemsStarted                     0                       # number of work items this cpu started
system.pc.south_bridge.ide.disks.dma_read_bytes            0                       # Number of bytes transfered via DMA reads (not PRD).
system.pc.south_bridge.ide.disks.dma_read_full_pages            0                       # Number of full page size DMA reads (not PRD).
system.pc.south_bridge.ide.disks.dma_read_txs            0                       # Number of DMA read transactions (not PRD).
system.pc.south_bridge.ide.disks.dma_write_bytes       131072                       # Number of bytes transfered via DMA writes.
system.pc.south_bridge.ide.disks.dma_write_full_pages           32                       # Number of full page size DMA writes.
system.pc.south_bridge.ide.disks.dma_write_txs           32                       # Number of DMA write transactions.
system.ruby.DMA_Controller.I.allocI_load |           4    100.00%    100.00% |           0      0.00%    100.00%
system.ruby.DMA_Controller.I.allocI_load::total            4                      
system.ruby.DMA_Controller.I.allocI_store |        2048    100.00%    100.00% |           0      0.00%    100.00%
system.ruby.DMA_Controller.I.allocI_store::total         2048                      
system.ruby.DMA_Controller.I.deallocfwdfrom_in |        1028    100.00%    100.00% |           0      0.00%    100.00%
system.ruby.DMA_Controller.I.deallocfwdfrom_in::total         1028                      
system.ruby.DMA_Controller.M.allocTBE    |        1027    100.00%    100.00% |           0      0.00%    100.00%
system.ruby.DMA_Controller.M.allocTBE::total         1027                      
system.ruby.DMA_Controller.M.externalstoreMrespfrom_in |        2048    100.00%    100.00% |           0      0.00%    100.00%
system.ruby.DMA_Controller.M.externalstoreMrespfrom_in::total         2048                      
system.ruby.DMA_Controller.M_evict.Stallmandatory_in |       55811    100.00%    100.00% |           0      0.00%    100.00%
system.ruby.DMA_Controller.M_evict.Stallmandatory_in::total        55811                      
system.ruby.DMA_Controller.S.SloadSEvent |          28    100.00%    100.00% |           0      0.00%    100.00%
system.ruby.DMA_Controller.S.SloadSEvent::total           28                      
system.ruby.DMA_Controller.S.allocTBE    |           4    100.00%    100.00% |           0      0.00%    100.00%
system.ruby.DMA_Controller.S.allocTBE::total            4                      
system.ruby.DMA_Controller.S.deallocTBE  |           1    100.00%    100.00% |           0      0.00%    100.00%
system.ruby.DMA_Controller.S.deallocTBE::total            1                      
system.ruby.DMA_Controller.S.externalloadSrespfrom_in |           4    100.00%    100.00% |           0      0.00%    100.00%
system.ruby.DMA_Controller.S.externalloadSrespfrom_in::total            4                      
system.ruby.DMA_Controller.S_evict.Stallmandatory_in |           7    100.00%    100.00% |           0      0.00%    100.00%
system.ruby.DMA_Controller.S_evict.Stallmandatory_in::total            7                      
system.ruby.DMA_Controller.SloadSEvent   |          28    100.00%    100.00% |           0      0.00%    100.00%
system.ruby.DMA_Controller.SloadSEvent::total           28                      
system.ruby.DMA_Controller.Stallmandatory_in |       55818    100.00%    100.00% |           0      0.00%    100.00%
system.ruby.DMA_Controller.Stallmandatory_in::total        55818                      
system.ruby.DMA_Controller.allocI_load   |           4    100.00%    100.00% |           0      0.00%    100.00%
system.ruby.DMA_Controller.allocI_load::total            4                      
system.ruby.DMA_Controller.allocI_store  |        2048    100.00%    100.00% |           0      0.00%    100.00%
system.ruby.DMA_Controller.allocI_store::total         2048                      
system.ruby.DMA_Controller.allocTBE      |        1031    100.00%    100.00% |           0      0.00%    100.00%
system.ruby.DMA_Controller.allocTBE::total         1031                      
system.ruby.DMA_Controller.deallocTBE    |           1    100.00%    100.00% |           0      0.00%    100.00%
system.ruby.DMA_Controller.deallocTBE::total            1                      
system.ruby.DMA_Controller.deallocfwdfrom_in |        1028    100.00%    100.00% |           0      0.00%    100.00%
system.ruby.DMA_Controller.deallocfwdfrom_in::total         1028                      
system.ruby.DMA_Controller.externalloadSrespfrom_in |           4    100.00%    100.00% |           0      0.00%    100.00%
system.ruby.DMA_Controller.externalloadSrespfrom_in::total            4                      
system.ruby.DMA_Controller.externalstoreMrespfrom_in |        2048    100.00%    100.00% |           0      0.00%    100.00%
system.ruby.DMA_Controller.externalstoreMrespfrom_in::total         2048                      
system.ruby.Directory_Controller.I.allocTBE |     1335440     25.14%     25.14% |     1331493     25.07%     50.21% |     1333934     25.12%     75.33% |     1310349     24.67%    100.00%
system.ruby.Directory_Controller.I.allocTBE::total      5311216                      
system.ruby.Directory_Controller.I.deallocTBE |     1334550     25.14%     25.14% |     1330608     25.07%     50.21% |     1333067     25.12%     75.33% |     1309491     24.67%    100.00%
system.ruby.Directory_Controller.I.deallocTBE::total      5307716                      
system.ruby.Directory_Controller.I_GetSL1C1_0.Stallreqto_in |         351     31.48%     31.48% |         235     21.08%     52.56% |         241     21.61%     74.17% |         288     25.83%    100.00%
system.ruby.Directory_Controller.I_GetSL1C1_0.Stallreqto_in::total         1115                      
system.ruby.Directory_Controller.M.allocTBE |      973459     24.72%     24.72% |      971381     24.66%     49.38% |     1013838     25.74%     75.12% |      980017     24.88%    100.00%
system.ruby.Directory_Controller.M.allocTBE::total      3938695                      
system.ruby.Directory_Controller.M.deallocTBE |      973865     24.72%     24.72% |      971792     24.66%     49.38% |     1014258     25.74%     75.12% |      980423     24.88%    100.00%
system.ruby.Directory_Controller.M.deallocTBE::total      3940338                      
system.ruby.Directory_Controller.M_GetS.Progress |         598     23.63%     23.63% |         658     26.00%     49.62% |         704     27.82%     77.44% |         571     22.56%    100.00%
system.ruby.Directory_Controller.M_GetS.Progress::total         2531                      
system.ruby.Directory_Controller.M_GetS.Stallreqto_in |           1      7.14%      7.14% |           1      7.14%     14.29% |          12     85.71%    100.00% |           0      0.00%    100.00%
system.ruby.Directory_Controller.M_GetS.Stallreqto_in::total           14                      
system.ruby.Directory_Controller.M_GetS_WBL1C1_0.Stallreqto_in |          11     11.00%     11.00% |          35     35.00%     46.00% |          50     50.00%     96.00% |           4      4.00%    100.00%
system.ruby.Directory_Controller.M_GetS_WBL1C1_0.Stallreqto_in::total          100                      
system.ruby.Directory_Controller.Progress |         598     23.63%     23.63% |         658     26.00%     49.62% |         704     27.82%     77.44% |         571     22.56%    100.00%
system.ruby.Directory_Controller.Progress::total         2531                      
system.ruby.Directory_Controller.S.allocTBE |     2349829     25.43%     25.43% |     2257904     24.43%     49.86% |     2362701     25.57%     75.42% |     2271226     24.58%    100.00%
system.ruby.Directory_Controller.S.allocTBE::total      9241660                      
system.ruby.Directory_Controller.S.deallocTBE |     2350313     25.43%     25.43% |     2258377     24.43%     49.86% |     2363148     25.57%     75.42% |     2271678     24.58%    100.00%
system.ruby.Directory_Controller.S.deallocTBE::total      9243516                      
system.ruby.Directory_Controller.S_GetSL1C1_0.Stallreqto_in |        3599     29.78%     29.78% |        2880     23.83%     53.62% |        3080     25.49%     79.10% |        2525     20.90%    100.00%
system.ruby.Directory_Controller.S_GetSL1C1_0.Stallreqto_in::total        12084                      
system.ruby.Directory_Controller.Stallreqto_in |        3962     29.76%     29.76% |        3151     23.67%     53.43% |        3383     25.41%     78.84% |        2817     21.16%    100.00%
system.ruby.Directory_Controller.Stallreqto_in::total        13313                      
system.ruby.Directory_Controller.allocTBE |     4658728     25.19%     25.19% |     4560778     24.66%     49.86% |     4710473     25.47%     75.33% |     4561592     24.67%    100.00%
system.ruby.Directory_Controller.allocTBE::total     18491571                      
system.ruby.Directory_Controller.deallocTBE |     4658728     25.19%     25.19% |     4560777     24.66%     49.86% |     4710473     25.47%     75.33% |     4561592     24.67%    100.00%
system.ruby.Directory_Controller.deallocTBE::total     18491570                      
system.ruby.IFETCH.hit_latency_hist_seqr::bucket_size            1                      
system.ruby.IFETCH.hit_latency_hist_seqr::max_bucket            9                      
system.ruby.IFETCH.hit_latency_hist_seqr::samples   2558800189                      
system.ruby.IFETCH.hit_latency_hist_seqr |  2558800189    100.00%    100.00% |           0      0.00%    100.00% |           0      0.00%    100.00% |           0      0.00%    100.00% |           0      0.00%    100.00% |           0      0.00%    100.00% |           0      0.00%    100.00% |           0      0.00%    100.00% |           0      0.00%    100.00% |           0      0.00%    100.00%
system.ruby.IFETCH.hit_latency_hist_seqr::total   2558800189                      
system.ruby.IFETCH.latency_hist_seqr::bucket_size            1                      
system.ruby.IFETCH.latency_hist_seqr::max_bucket            9                      
system.ruby.IFETCH.latency_hist_seqr::samples   2561163886                      
system.ruby.IFETCH.latency_hist_seqr     |  2561163886    100.00%    100.00% |           0      0.00%    100.00% |           0      0.00%    100.00% |           0      0.00%    100.00% |           0      0.00%    100.00% |           0      0.00%    100.00% |           0      0.00%    100.00% |           0      0.00%    100.00% |           0      0.00%    100.00% |           0      0.00%    100.00%
system.ruby.IFETCH.latency_hist_seqr::total   2561163886                      
system.ruby.IFETCH.miss_latency_hist_seqr::bucket_size            1                      
system.ruby.IFETCH.miss_latency_hist_seqr::max_bucket            9                      
system.ruby.IFETCH.miss_latency_hist_seqr::samples      2363697                      
system.ruby.IFETCH.miss_latency_hist_seqr |     2363697    100.00%    100.00% |           0      0.00%    100.00% |           0      0.00%    100.00% |           0      0.00%    100.00% |           0      0.00%    100.00% |           0      0.00%    100.00% |           0      0.00%    100.00% |           0      0.00%    100.00% |           0      0.00%    100.00% |           0      0.00%    100.00%
system.ruby.IFETCH.miss_latency_hist_seqr::total      2363697                      
system.ruby.L1Cache_Controller.I.allocI_load |     1401096     25.10%     25.10% |     1425768     25.54%     50.63% |     1389194     24.88%     75.52% |     1366809     24.48%    100.00%
system.ruby.L1Cache_Controller.I.allocI_load::total      5582867                      
system.ruby.L1Cache_Controller.I.allocI_store |      491780     14.49%     14.49% |     1083198     31.92%     46.41% |      561056     16.53%     62.95% |     1257419     37.05%    100.00%
system.ruby.L1Cache_Controller.I.allocI_store::total      3393453                      
system.ruby.L1Cache_Controller.I.deallocfwdfrom_in |     1891863     21.09%     21.09% |     2507972     27.95%     49.04% |     1949268     21.73%     70.76% |     2623210     29.24%    100.00%
system.ruby.L1Cache_Controller.I.deallocfwdfrom_in::total      8972313                      
system.ruby.L1Cache_Controller.I_store.Progress |        2756     98.01%     98.01% |          17      0.60%     98.61% |          17      0.60%     99.22% |          22      0.78%    100.00%
system.ruby.L1Cache_Controller.I_store.Progress::total         2812                      
system.ruby.L1Cache_Controller.I_store.Stallfwdfrom_in |           0      0.00%      0.00% |           0      0.00%      0.00% |           1     33.33%     33.33% |           2     66.67%    100.00%
system.ruby.L1Cache_Controller.I_store.Stallfwdfrom_in::total            3                      
system.ruby.L1Cache_Controller.M.MloadMEvent |    56353197     25.64%     25.64% |    52636295     23.95%     49.59% |    56477395     25.70%     75.29% |    54295395     24.71%    100.00%
system.ruby.L1Cache_Controller.M.MloadMEvent::total    219762282                      
system.ruby.L1Cache_Controller.M.MstoreMEvent |    39127302     25.30%     25.30% |    38217690     24.72%     50.02% |    38987743     25.21%     75.24% |    38292515     24.76%    100.00%
system.ruby.L1Cache_Controller.M.MstoreMEvent::total    154625250                      
system.ruby.L1Cache_Controller.M.allocTBE |      617620     15.68%     15.68% |     1238326     31.45%     47.13% |      678895     17.24%     64.37% |     1402827     35.63%    100.00%
system.ruby.L1Cache_Controller.M.allocTBE::total      3937668                      
system.ruby.L1Cache_Controller.M.externalstoreMrespfrom_in |      617788     15.69%     15.69% |     1238472     31.45%     47.13% |      679019     17.24%     64.38% |     1403011     35.62%    100.00%
system.ruby.L1Cache_Controller.M.externalstoreMrespfrom_in::total      3938290                      
system.ruby.L1Cache_Controller.M_evict.Stallmandatory_in |          70     25.74%     25.74% |         112     41.18%     66.91% |          40     14.71%     81.62% |          50     18.38%    100.00%
system.ruby.L1Cache_Controller.M_evict.Stallmandatory_in::total          272                      
system.ruby.L1Cache_Controller.MloadMEvent |    56353197     25.64%     25.64% |    52636295     23.95%     49.59% |    56477395     25.70%     75.29% |    54295395     24.71%    100.00%
system.ruby.L1Cache_Controller.MloadMEvent::total    219762282                      
system.ruby.L1Cache_Controller.MstoreMEvent |    39127302     25.30%     25.30% |    38217690     24.72%     50.02% |    38987743     25.21%     75.24% |    38292515     24.76%    100.00%
system.ruby.L1Cache_Controller.MstoreMEvent::total    154625250                      
system.ruby.L1Cache_Controller.Progress  |      130297     23.71%     23.71% |      155476     28.29%     51.99% |      118100     21.49%     73.48% |      145745     26.52%    100.00%
system.ruby.L1Cache_Controller.Progress::total       549618                      
system.ruby.L1Cache_Controller.S.SloadSEvent |   702491350     24.91%     24.91% |   705484325     25.02%     49.93% |   704700650     24.99%     74.92% |   707208739     25.08%    100.00%
system.ruby.L1Cache_Controller.S.SloadSEvent::total   2819885064                      
system.ruby.L1Cache_Controller.S.allocTBE |     1402361     25.12%     25.12% |     1425058     25.53%     50.65% |     1388478     24.87%     75.53% |     1366115     24.47%    100.00%
system.ruby.L1Cache_Controller.S.allocTBE::total      5582012                      
system.ruby.L1Cache_Controller.S.deallocTBE |        2110     83.40%     83.40% |         138      5.45%     88.85% |         142      5.61%     94.47% |         140      5.53%    100.00%
system.ruby.L1Cache_Controller.S.deallocTBE::total         2530                      
system.ruby.L1Cache_Controller.S.externalloadSrespfrom_in |     1401096     25.10%     25.10% |     1425768     25.54%     50.63% |     1389194     24.88%     75.52% |     1366808     24.48%    100.00%
system.ruby.L1Cache_Controller.S.externalloadSrespfrom_in::total      5582866                      
system.ruby.L1Cache_Controller.S_evict.Stallmandatory_in |          74     40.00%     40.00% |          43     23.24%     63.24% |          39     21.08%     84.32% |          29     15.68%    100.00%
system.ruby.L1Cache_Controller.S_evict.Stallmandatory_in::total          185                      
system.ruby.L1Cache_Controller.S_store.Progress |      127541     23.32%     23.32% |      155459     28.43%     51.76% |      118083     21.60%     73.35% |      145723     26.65%    100.00%
system.ruby.L1Cache_Controller.S_store.Progress::total       546806                      
system.ruby.L1Cache_Controller.SloadSEvent |   702491350     24.91%     24.91% |   705484325     25.02%     49.93% |   704700650     24.99%     74.92% |   707208739     25.08%    100.00%
system.ruby.L1Cache_Controller.SloadSEvent::total   2819885064                      
system.ruby.L1Cache_Controller.Stallfwdfrom_in |           0      0.00%      0.00% |           0      0.00%      0.00% |           1     33.33%     33.33% |           2     66.67%    100.00%
system.ruby.L1Cache_Controller.Stallfwdfrom_in::total            3                      
system.ruby.L1Cache_Controller.Stallmandatory_in |         144     31.51%     31.51% |         155     33.92%     65.43% |          79     17.29%     82.71% |          79     17.29%    100.00%
system.ruby.L1Cache_Controller.Stallmandatory_in::total          457                      
system.ruby.L1Cache_Controller.allocI_load |     1401096     25.10%     25.10% |     1425768     25.54%     50.63% |     1389194     24.88%     75.52% |     1366809     24.48%    100.00%
system.ruby.L1Cache_Controller.allocI_load::total      5582867                      
system.ruby.L1Cache_Controller.allocI_store |      491780     14.49%     14.49% |     1083198     31.92%     46.41% |      561056     16.53%     62.95% |     1257419     37.05%    100.00%
system.ruby.L1Cache_Controller.allocI_store::total      3393453                      
system.ruby.L1Cache_Controller.allocTBE  |     2019981     21.22%     21.22% |     2663384     27.98%     49.20% |     2067373     21.72%     70.91% |     2768942     29.09%    100.00%
system.ruby.L1Cache_Controller.allocTBE::total      9519680                      
system.ruby.L1Cache_Controller.deallocTBE |        2110     83.40%     83.40% |         138      5.45%     88.85% |         142      5.61%     94.47% |         140      5.53%    100.00%
system.ruby.L1Cache_Controller.deallocTBE::total         2530                      
system.ruby.L1Cache_Controller.deallocfwdfrom_in |     1891863     21.09%     21.09% |     2507972     27.95%     49.04% |     1949268     21.73%     70.76% |     2623210     29.24%    100.00%
system.ruby.L1Cache_Controller.deallocfwdfrom_in::total      8972313                      
system.ruby.L1Cache_Controller.externalloadSrespfrom_in |     1401096     25.10%     25.10% |     1425768     25.54%     50.63% |     1389194     24.88%     75.52% |     1366808     24.48%    100.00%
system.ruby.L1Cache_Controller.externalloadSrespfrom_in::total      5582866                      
system.ruby.L1Cache_Controller.externalstoreMrespfrom_in |      617788     15.69%     15.69% |     1238472     31.45%     47.13% |      679019     17.24%     64.38% |     1403011     35.62%    100.00%
system.ruby.L1Cache_Controller.externalstoreMrespfrom_in::total      3938290                      
system.ruby.LD.hit_latency_hist_seqr::bucket_size            1                      
system.ruby.LD.hit_latency_hist_seqr::max_bucket            9                      
system.ruby.LD.hit_latency_hist_seqr::samples    480847157                      
system.ruby.LD.hit_latency_hist_seqr     |   480847157    100.00%    100.00% |           0      0.00%    100.00% |           0      0.00%    100.00% |           0      0.00%    100.00% |           0      0.00%    100.00% |           0      0.00%    100.00% |           0      0.00%    100.00% |           0      0.00%    100.00% |           0      0.00%    100.00% |           0      0.00%    100.00%
system.ruby.LD.hit_latency_hist_seqr::total    480847157                      
system.ruby.LD.latency_hist_seqr::bucket_size            1                      
system.ruby.LD.latency_hist_seqr::max_bucket            9                      
system.ruby.LD.latency_hist_seqr::samples    484066326                      
system.ruby.LD.latency_hist_seqr         |   484066326    100.00%    100.00% |           0      0.00%    100.00% |           0      0.00%    100.00% |           0      0.00%    100.00% |           0      0.00%    100.00% |           0      0.00%    100.00% |           0      0.00%    100.00% |           0      0.00%    100.00% |           0      0.00%    100.00% |           0      0.00%    100.00%
system.ruby.LD.latency_hist_seqr::total     484066326                      
system.ruby.LD.miss_latency_hist_seqr::bucket_size            1                      
system.ruby.LD.miss_latency_hist_seqr::max_bucket            9                      
system.ruby.LD.miss_latency_hist_seqr::samples      3219169                      
system.ruby.LD.miss_latency_hist_seqr    |     3219169    100.00%    100.00% |           0      0.00%    100.00% |           0      0.00%    100.00% |           0      0.00%    100.00% |           0      0.00%    100.00% |           0      0.00%    100.00% |           0      0.00%    100.00% |           0      0.00%    100.00% |           0      0.00%    100.00% |           0      0.00%    100.00%
system.ruby.LD.miss_latency_hist_seqr::total      3219169                      
system.ruby.Locked_RMW_Read.hit_latency_hist_seqr::bucket_size            1                      
system.ruby.Locked_RMW_Read.hit_latency_hist_seqr::max_bucket            9                      
system.ruby.Locked_RMW_Read.hit_latency_hist_seqr::samples       168098                      
system.ruby.Locked_RMW_Read.hit_latency_hist_seqr |      168098    100.00%    100.00% |           0      0.00%    100.00% |           0      0.00%    100.00% |           0      0.00%    100.00% |           0      0.00%    100.00% |           0      0.00%    100.00% |           0      0.00%    100.00% |           0      0.00%    100.00% |           0      0.00%    100.00% |           0      0.00%    100.00%
system.ruby.Locked_RMW_Read.hit_latency_hist_seqr::total       168098                      
system.ruby.Locked_RMW_Read.latency_hist_seqr::bucket_size            1                      
system.ruby.Locked_RMW_Read.latency_hist_seqr::max_bucket            9                      
system.ruby.Locked_RMW_Read.latency_hist_seqr::samples       183563                      
system.ruby.Locked_RMW_Read.latency_hist_seqr |      183563    100.00%    100.00% |           0      0.00%    100.00% |           0      0.00%    100.00% |           0      0.00%    100.00% |           0      0.00%    100.00% |           0      0.00%    100.00% |           0      0.00%    100.00% |           0      0.00%    100.00% |           0      0.00%    100.00% |           0      0.00%    100.00%
system.ruby.Locked_RMW_Read.latency_hist_seqr::total       183563                      
system.ruby.Locked_RMW_Read.miss_latency_hist_seqr::bucket_size            1                      
system.ruby.Locked_RMW_Read.miss_latency_hist_seqr::max_bucket            9                      
system.ruby.Locked_RMW_Read.miss_latency_hist_seqr::samples        15465                      
system.ruby.Locked_RMW_Read.miss_latency_hist_seqr |       15465    100.00%    100.00% |           0      0.00%    100.00% |           0      0.00%    100.00% |           0      0.00%    100.00% |           0      0.00%    100.00% |           0      0.00%    100.00% |           0      0.00%    100.00% |           0      0.00%    100.00% |           0      0.00%    100.00% |           0      0.00%    100.00%
system.ruby.Locked_RMW_Read.miss_latency_hist_seqr::total        15465                      
system.ruby.Locked_RMW_Write.hit_latency_hist_seqr::bucket_size            1                      
system.ruby.Locked_RMW_Write.hit_latency_hist_seqr::max_bucket            9                      
system.ruby.Locked_RMW_Write.hit_latency_hist_seqr::samples       183563                      
system.ruby.Locked_RMW_Write.hit_latency_hist_seqr |      183563    100.00%    100.00% |           0      0.00%    100.00% |           0      0.00%    100.00% |           0      0.00%    100.00% |           0      0.00%    100.00% |           0      0.00%    100.00% |           0      0.00%    100.00% |           0      0.00%    100.00% |           0      0.00%    100.00% |           0      0.00%    100.00%
system.ruby.Locked_RMW_Write.hit_latency_hist_seqr::total       183563                      
system.ruby.Locked_RMW_Write.latency_hist_seqr::bucket_size            1                      
system.ruby.Locked_RMW_Write.latency_hist_seqr::max_bucket            9                      
system.ruby.Locked_RMW_Write.latency_hist_seqr::samples       183563                      
system.ruby.Locked_RMW_Write.latency_hist_seqr |      183563    100.00%    100.00% |           0      0.00%    100.00% |           0      0.00%    100.00% |           0      0.00%    100.00% |           0      0.00%    100.00% |           0      0.00%    100.00% |           0      0.00%    100.00% |           0      0.00%    100.00% |           0      0.00%    100.00% |           0      0.00%    100.00%
system.ruby.Locked_RMW_Write.latency_hist_seqr::total       183563                      
system.ruby.RMW_Read.hit_latency_hist_seqr::bucket_size            1                      
system.ruby.RMW_Read.hit_latency_hist_seqr::max_bucket            9                      
system.ruby.RMW_Read.hit_latency_hist_seqr::samples      7216632                      
system.ruby.RMW_Read.hit_latency_hist_seqr |     7216632    100.00%    100.00% |           0      0.00%    100.00% |           0      0.00%    100.00% |           0      0.00%    100.00% |           0      0.00%    100.00% |           0      0.00%    100.00% |           0      0.00%    100.00% |           0      0.00%    100.00% |           0      0.00%    100.00% |           0      0.00%    100.00%
system.ruby.RMW_Read.hit_latency_hist_seqr::total      7216632                      
system.ruby.RMW_Read.latency_hist_seqr::bucket_size            1                      
system.ruby.RMW_Read.latency_hist_seqr::max_bucket            9                      
system.ruby.RMW_Read.latency_hist_seqr::samples      7273319                      
system.ruby.RMW_Read.latency_hist_seqr   |     7273319    100.00%    100.00% |           0      0.00%    100.00% |           0      0.00%    100.00% |           0      0.00%    100.00% |           0      0.00%    100.00% |           0      0.00%    100.00% |           0      0.00%    100.00% |           0      0.00%    100.00% |           0      0.00%    100.00% |           0      0.00%    100.00%
system.ruby.RMW_Read.latency_hist_seqr::total      7273319                      
system.ruby.RMW_Read.miss_latency_hist_seqr::bucket_size            1                      
system.ruby.RMW_Read.miss_latency_hist_seqr::max_bucket            9                      
system.ruby.RMW_Read.miss_latency_hist_seqr::samples        56687                      
system.ruby.RMW_Read.miss_latency_hist_seqr |       56687    100.00%    100.00% |           0      0.00%    100.00% |           0      0.00%    100.00% |           0      0.00%    100.00% |           0      0.00%    100.00% |           0      0.00%    100.00% |           0      0.00%    100.00% |           0      0.00%    100.00% |           0      0.00%    100.00% |           0      0.00%    100.00%
system.ruby.RMW_Read.miss_latency_hist_seqr::total        56687                      
system.ruby.ST.hit_latency_hist_seqr::bucket_size            1                      
system.ruby.ST.hit_latency_hist_seqr::max_bucket            9                      
system.ruby.ST.hit_latency_hist_seqr::samples    147056957                      
system.ruby.ST.hit_latency_hist_seqr     |   147056957    100.00%    100.00% |           0      0.00%    100.00% |           0      0.00%    100.00% |           0      0.00%    100.00% |           0      0.00%    100.00% |           0      0.00%    100.00% |           0      0.00%    100.00% |           0      0.00%    100.00% |           0      0.00%    100.00% |           0      0.00%    100.00%
system.ruby.ST.hit_latency_hist_seqr::total    147056957                      
system.ruby.ST.latency_hist_seqr::bucket_size            1                      
system.ruby.ST.latency_hist_seqr::max_bucket            9                      
system.ruby.ST.latency_hist_seqr::samples    150923095                      
system.ruby.ST.latency_hist_seqr         |   150923095    100.00%    100.00% |           0      0.00%    100.00% |           0      0.00%    100.00% |           0      0.00%    100.00% |           0      0.00%    100.00% |           0      0.00%    100.00% |           0      0.00%    100.00% |           0      0.00%    100.00% |           0      0.00%    100.00% |           0      0.00%    100.00%
system.ruby.ST.latency_hist_seqr::total     150923095                      
system.ruby.ST.miss_latency_hist_seqr::bucket_size            1                      
system.ruby.ST.miss_latency_hist_seqr::max_bucket            9                      
system.ruby.ST.miss_latency_hist_seqr::samples      3866138                      
system.ruby.ST.miss_latency_hist_seqr    |     3866138    100.00%    100.00% |           0      0.00%    100.00% |           0      0.00%    100.00% |           0      0.00%    100.00% |           0      0.00%    100.00% |           0      0.00%    100.00% |           0      0.00%    100.00% |           0      0.00%    100.00% |           0      0.00%    100.00% |           0      0.00%    100.00%
system.ruby.ST.miss_latency_hist_seqr::total      3866138                      
system.ruby.dir_cntrl0.fwdFrom.avg_buf_msgs     0.006646                       # Average number of messages in buffer
system.ruby.dir_cntrl0.fwdFrom.avg_stall_time  2999.996526                       # Average number of cycles messages are stalled in this MB
system.ruby.dir_cntrl0.reqTo.avg_buf_msgs     0.002299                       # Average number of messages in buffer
system.ruby.dir_cntrl0.reqTo.avg_stall_time  5911.300031                       # Average number of cycles messages are stalled in this MB
system.ruby.dir_cntrl0.requestToMemory.avg_buf_msgs     0.001648                       # Average number of messages in buffer
system.ruby.dir_cntrl0.requestToMemory.avg_stall_time   499.999998                       # Average number of cycles messages are stalled in this MB
system.ruby.dir_cntrl0.respFrom.avg_buf_msgs     0.007042                       # Average number of messages in buffer
system.ruby.dir_cntrl0.respFrom.avg_stall_time  3000.728115                       # Average number of cycles messages are stalled in this MB
system.ruby.dir_cntrl0.respTo.avg_buf_msgs     0.000000                       # Average number of messages in buffer
system.ruby.dir_cntrl0.respTo.avg_stall_time 23910.882380                       # Average number of cycles messages are stalled in this MB
system.ruby.dir_cntrl0.responseFromMemory.avg_buf_msgs     0.002940                       # Average number of messages in buffer
system.ruby.dir_cntrl0.responseFromMemory.avg_stall_time   499.999967                       # Average number of cycles messages are stalled in this MB
system.ruby.dir_cntrl1.fwdFrom.avg_buf_msgs     0.006506                       # Average number of messages in buffer
system.ruby.dir_cntrl1.fwdFrom.avg_stall_time  2999.970434                       # Average number of cycles messages are stalled in this MB
system.ruby.dir_cntrl1.reqTo.avg_buf_msgs     0.002247                       # Average number of messages in buffer
system.ruby.dir_cntrl1.reqTo.avg_stall_time  5838.958270                       # Average number of cycles messages are stalled in this MB
system.ruby.dir_cntrl1.requestToMemory.avg_buf_msgs     0.001623                       # Average number of messages in buffer
system.ruby.dir_cntrl1.requestToMemory.avg_stall_time   499.999998                       # Average number of cycles messages are stalled in this MB
system.ruby.dir_cntrl1.respFrom.avg_buf_msgs     0.006897                       # Average number of messages in buffer
system.ruby.dir_cntrl1.respFrom.avg_stall_time  3000.835897                       # Average number of cycles messages are stalled in this MB
system.ruby.dir_cntrl1.respTo.avg_buf_msgs     0.000000                       # Average number of messages in buffer
system.ruby.dir_cntrl1.respTo.avg_stall_time 24512.955503                       # Average number of cycles messages are stalled in this MB
system.ruby.dir_cntrl1.responseFromMemory.avg_buf_msgs     0.002904                       # Average number of messages in buffer
system.ruby.dir_cntrl1.responseFromMemory.avg_stall_time   499.999967                       # Average number of cycles messages are stalled in this MB
system.ruby.dir_cntrl2.fwdFrom.avg_buf_msgs     0.006717                       # Average number of messages in buffer
system.ruby.dir_cntrl2.fwdFrom.avg_stall_time  2999.977382                       # Average number of cycles messages are stalled in this MB
system.ruby.dir_cntrl2.reqTo.avg_buf_msgs     0.002321                       # Average number of messages in buffer
system.ruby.dir_cntrl2.reqTo.avg_stall_time  5957.550654                       # Average number of cycles messages are stalled in this MB
system.ruby.dir_cntrl2.requestToMemory.avg_buf_msgs     0.001682                       # Average number of messages in buffer
system.ruby.dir_cntrl2.requestToMemory.avg_stall_time   499.999884                       # Average number of cycles messages are stalled in this MB
system.ruby.dir_cntrl2.respFrom.avg_buf_msgs     0.007126                       # Average number of messages in buffer
system.ruby.dir_cntrl2.respFrom.avg_stall_time  3000.664262                       # Average number of cycles messages are stalled in this MB
system.ruby.dir_cntrl2.respTo.avg_buf_msgs     0.000000                       # Average number of messages in buffer
system.ruby.dir_cntrl2.respTo.avg_stall_time 24534.121517                       # Average number of cycles messages are stalled in this MB
system.ruby.dir_cntrl2.responseFromMemory.avg_buf_msgs     0.003004                       # Average number of messages in buffer
system.ruby.dir_cntrl2.responseFromMemory.avg_stall_time   499.999857                       # Average number of cycles messages are stalled in this MB
system.ruby.dir_cntrl3.fwdFrom.avg_buf_msgs     0.006478                       # Average number of messages in buffer
system.ruby.dir_cntrl3.fwdFrom.avg_stall_time  2999.995605                       # Average number of cycles messages are stalled in this MB
system.ruby.dir_cntrl3.reqTo.avg_buf_msgs     0.002246                       # Average number of messages in buffer
system.ruby.dir_cntrl3.reqTo.avg_stall_time  5779.020221                       # Average number of cycles messages are stalled in this MB
system.ruby.dir_cntrl3.requestToMemory.avg_buf_msgs     0.001632                       # Average number of messages in buffer
system.ruby.dir_cntrl3.requestToMemory.avg_stall_time   499.999956                       # Average number of cycles messages are stalled in this MB
system.ruby.dir_cntrl3.respFrom.avg_buf_msgs     0.006927                       # Average number of messages in buffer
system.ruby.dir_cntrl3.respFrom.avg_stall_time  3000.619583                       # Average number of cycles messages are stalled in this MB
system.ruby.dir_cntrl3.respTo.avg_buf_msgs     0.000000                       # Average number of messages in buffer
system.ruby.dir_cntrl3.respTo.avg_stall_time 25494.903974                       # Average number of cycles messages are stalled in this MB
system.ruby.dir_cntrl3.responseFromMemory.avg_buf_msgs     0.002920                       # Average number of messages in buffer
system.ruby.dir_cntrl3.responseFromMemory.avg_stall_time   499.999930                       # Average number of cycles messages are stalled in this MB
system.ruby.dma_cntrl0.cache.demand_accesses            0                       # Number of cache demand accesses
system.ruby.dma_cntrl0.cache.demand_hits            0                       # Number of cache demand hits
system.ruby.dma_cntrl0.cache.demand_misses            0                       # Number of cache demand misses
system.ruby.dma_cntrl0.fully_busy_cycles        10009                       # cycles for which number of transistions == max transitions
system.ruby.dma_cntrl0.fwdFrom.avg_buf_msgs     0.000001                       # Average number of messages in buffer
system.ruby.dma_cntrl0.fwdFrom.avg_stall_time  6252.726432                       # Average number of cycles messages are stalled in this MB
system.ruby.dma_cntrl0.mandatoryQueue.avg_buf_msgs     0.000324                       # Average number of messages in buffer
system.ruby.dma_cntrl0.mandatoryQueue.avg_stall_time 599760.033261                       # Average number of cycles messages are stalled in this MB
system.ruby.dma_cntrl0.reqTo.avg_buf_msgs     0.000588                       # Average number of messages in buffer
system.ruby.dma_cntrl0.reqTo.avg_stall_time 24051.569237                       # Average number of cycles messages are stalled in this MB
system.ruby.dma_cntrl0.respFrom.avg_buf_msgs     0.000001                       # Average number of messages in buffer
system.ruby.dma_cntrl0.respFrom.avg_stall_time 103409.979246                       # Average number of cycles messages are stalled in this MB
system.ruby.dma_cntrl0.respTo.avg_buf_msgs     0.000000                       # Average number of messages in buffer
system.ruby.dma_cntrl0.respTo.avg_stall_time   961.745092                       # Average number of cycles messages are stalled in this MB
system.ruby.hit_latency_hist_seqr::bucket_size            1                      
system.ruby.hit_latency_hist_seqr::max_bucket            9                      
system.ruby.hit_latency_hist_seqr::samples   3194272596                      
system.ruby.hit_latency_hist_seqr        |  3194272596    100.00%    100.00% |           0      0.00%    100.00% |           0      0.00%    100.00% |           0      0.00%    100.00% |           0      0.00%    100.00% |           0      0.00%    100.00% |           0      0.00%    100.00% |           0      0.00%    100.00% |           0      0.00%    100.00% |           0      0.00%    100.00%
system.ruby.hit_latency_hist_seqr::total   3194272596                      
system.ruby.io_controller.cache.demand_accesses            0                       # Number of cache demand accesses
system.ruby.io_controller.cache.demand_hits            0                       # Number of cache demand hits
system.ruby.io_controller.cache.demand_misses            0                       # Number of cache demand misses
system.ruby.l1_cntrl0.cache.demand_accesses            0                       # Number of cache demand accesses
system.ruby.l1_cntrl0.cache.demand_hits             0                       # Number of cache demand hits
system.ruby.l1_cntrl0.cache.demand_misses            0                       # Number of cache demand misses
system.ruby.l1_cntrl0.fwdFrom.avg_buf_msgs     1.000519                       # Average number of messages in buffer
system.ruby.l1_cntrl0.fwdFrom.avg_stall_time  6547.066584                       # Average number of cycles messages are stalled in this MB
system.ruby.l1_cntrl0.mandatoryQueue.avg_buf_msgs     0.416944                       # Average number of messages in buffer
system.ruby.l1_cntrl0.mandatoryQueue.avg_stall_time  2377.942614                       # Average number of cycles messages are stalled in this MB
system.ruby.l1_cntrl0.reqTo.avg_buf_msgs     0.001913                       # Average number of messages in buffer
system.ruby.l1_cntrl0.reqTo.avg_stall_time   499.999999                       # Average number of cycles messages are stalled in this MB
system.ruby.l1_cntrl0.respFrom.avg_buf_msgs     0.000990                       # Average number of messages in buffer
system.ruby.l1_cntrl0.respFrom.avg_stall_time 16615.296335                       # Average number of cycles messages are stalled in this MB
system.ruby.l1_cntrl0.respTo.avg_buf_msgs     0.000003                       # Average number of messages in buffer
system.ruby.l1_cntrl0.respTo.avg_stall_time   986.239725                       # Average number of cycles messages are stalled in this MB
system.ruby.l1_cntrl1.cache.demand_accesses            0                       # Number of cache demand accesses
system.ruby.l1_cntrl1.cache.demand_hits             0                       # Number of cache demand hits
system.ruby.l1_cntrl1.cache.demand_misses            0                       # Number of cache demand misses
system.ruby.l1_cntrl1.fully_busy_cycles             2                       # cycles for which number of transistions == max transitions
system.ruby.l1_cntrl1.fwdFrom.avg_buf_msgs     0.001227                       # Average number of messages in buffer
system.ruby.l1_cntrl1.fwdFrom.avg_stall_time  6584.822969                       # Average number of cycles messages are stalled in this MB
system.ruby.l1_cntrl1.mandatoryQueue.avg_buf_msgs     0.429005                       # Average number of messages in buffer
system.ruby.l1_cntrl1.mandatoryQueue.avg_stall_time  3001.362003                       # Average number of cycles messages are stalled in this MB
system.ruby.l1_cntrl1.reqTo.avg_buf_msgs     0.002530                       # Average number of messages in buffer
system.ruby.l1_cntrl1.reqTo.avg_stall_time   499.999999                       # Average number of cycles messages are stalled in this MB
system.ruby.l1_cntrl1.respFrom.avg_buf_msgs     0.001304                       # Average number of messages in buffer
system.ruby.l1_cntrl1.respFrom.avg_stall_time 16539.114913                       # Average number of cycles messages are stalled in this MB
system.ruby.l1_cntrl1.respTo.avg_buf_msgs     0.000001                       # Average number of messages in buffer
system.ruby.l1_cntrl1.respTo.avg_stall_time   506.448407                       # Average number of cycles messages are stalled in this MB
system.ruby.l1_cntrl2.cache.demand_accesses            0                       # Number of cache demand accesses
system.ruby.l1_cntrl2.cache.demand_hits             0                       # Number of cache demand hits
system.ruby.l1_cntrl2.cache.demand_misses            0                       # Number of cache demand misses
system.ruby.l1_cntrl2.fwdFrom.avg_buf_msgs     0.000954                       # Average number of messages in buffer
system.ruby.l1_cntrl2.fwdFrom.avg_stall_time  6437.680888                       # Average number of cycles messages are stalled in this MB
system.ruby.l1_cntrl2.mandatoryQueue.avg_buf_msgs     0.419299                       # Average number of messages in buffer
system.ruby.l1_cntrl2.mandatoryQueue.avg_stall_time  2450.018215                       # Average number of cycles messages are stalled in this MB
system.ruby.l1_cntrl2.reqTo.avg_buf_msgs     0.001965                       # Average number of messages in buffer
system.ruby.l1_cntrl2.reqTo.avg_stall_time   499.722042                       # Average number of cycles messages are stalled in this MB
system.ruby.l1_cntrl2.respFrom.avg_buf_msgs     0.001012                       # Average number of messages in buffer
system.ruby.l1_cntrl2.respFrom.avg_stall_time 16555.185616                       # Average number of cycles messages are stalled in this MB
system.ruby.l1_cntrl2.respTo.avg_buf_msgs     0.000001                       # Average number of messages in buffer
system.ruby.l1_cntrl2.respTo.avg_stall_time   503.421001                       # Average number of cycles messages are stalled in this MB
system.ruby.l1_cntrl3.cache.demand_accesses            0                       # Number of cache demand accesses
system.ruby.l1_cntrl3.cache.demand_hits             0                       # Number of cache demand hits
system.ruby.l1_cntrl3.cache.demand_misses            0                       # Number of cache demand misses
system.ruby.l1_cntrl3.fwdFrom.avg_buf_msgs     0.001284                       # Average number of messages in buffer
system.ruby.l1_cntrl3.fwdFrom.avg_stall_time  6544.774319                       # Average number of cycles messages are stalled in this MB
system.ruby.l1_cntrl3.mandatoryQueue.avg_buf_msgs     0.433550                       # Average number of messages in buffer
system.ruby.l1_cntrl3.mandatoryQueue.avg_stall_time  3088.694846                       # Average number of cycles messages are stalled in this MB
system.ruby.l1_cntrl3.reqTo.avg_buf_msgs     0.002638                       # Average number of messages in buffer
system.ruby.l1_cntrl3.reqTo.avg_stall_time   499.870422                       # Average number of cycles messages are stalled in this MB
system.ruby.l1_cntrl3.respFrom.avg_buf_msgs     0.001355                       # Average number of messages in buffer
system.ruby.l1_cntrl3.respFrom.avg_stall_time 16641.363924                       # Average number of cycles messages are stalled in this MB
system.ruby.l1_cntrl3.respTo.avg_buf_msgs     0.000001                       # Average number of messages in buffer
system.ruby.l1_cntrl3.respTo.avg_stall_time   518.708716                       # Average number of cycles messages are stalled in this MB
system.ruby.latency_hist_seqr::bucket_size            1                      
system.ruby.latency_hist_seqr::max_bucket            9                      
system.ruby.latency_hist_seqr::samples     3203793752                      
system.ruby.latency_hist_seqr            |  3203793752    100.00%    100.00% |           0      0.00%    100.00% |           0      0.00%    100.00% |           0      0.00%    100.00% |           0      0.00%    100.00% |           0      0.00%    100.00% |           0      0.00%    100.00% |           0      0.00%    100.00% |           0      0.00%    100.00% |           0      0.00%    100.00%
system.ruby.latency_hist_seqr::total       3203793752                      
system.ruby.miss_latency_hist_seqr::bucket_size            1                      
system.ruby.miss_latency_hist_seqr::max_bucket            9                      
system.ruby.miss_latency_hist_seqr::samples      9521156                      
system.ruby.miss_latency_hist_seqr       |     9521156    100.00%    100.00% |           0      0.00%    100.00% |           0      0.00%    100.00% |           0      0.00%    100.00% |           0      0.00%    100.00% |           0      0.00%    100.00% |           0      0.00%    100.00% |           0      0.00%    100.00% |           0      0.00%    100.00% |           0      0.00%    100.00%
system.ruby.miss_latency_hist_seqr::total      9521156                      
system.ruby.network.average_flit_latency    16.680482                      
system.ruby.network.average_flit_network_latency    12.523998                      
system.ruby.network.average_flit_queueing_latency     4.156485                      
system.ruby.network.average_flit_vnet_latency |   15.207608                       |    5.002566                       |   10.762131                       |         nan                       |         nan                       |         nan                       |         nan                       |         nan                      
system.ruby.network.average_flit_vqueue_latency |    6.006173                       |    6.000000                       |    1.099587                       |         nan                       |         nan                       |         nan                       |         nan                       |         nan                      
system.ruby.network.average_hops             1.000820                      
system.ruby.network.average_packet_latency    15.870457                      
system.ruby.network.average_packet_network_latency    12.336011                      
system.ruby.network.average_packet_queueing_latency     3.534447                      
system.ruby.network.average_packet_vnet_latency |   25.202331                       |    5.002566                       |    9.264413                       |         nan                       |         nan                       |         nan                       |         nan                       |         nan                      
system.ruby.network.average_packet_vqueue_latency |    6.004164                       |    6.000000                       |    1.064771                       |         nan                       |         nan                       |         nan                       |         nan                       |         nan                      
system.ruby.network.avg_link_utilization     0.133384                      
system.ruby.network.avg_vc_load          |    0.052349     39.25%     39.25% |    0.005929      4.45%     43.69% |    0.005829      4.37%     48.06% |    0.005828      4.37%     52.43% |    0.009882      7.41%     59.84% |    0.001100      0.82%     60.66% |    0.001098      0.82%     61.49% |    0.001098      0.82%     62.31% |    0.037465     28.09%     90.40% |    0.004429      3.32%     93.72% |    0.004192      3.14%     96.86% |    0.004184      3.14%    100.00% |           0      0.00%    100.00% |           0      0.00%    100.00% |           0      0.00%    100.00% |           0      0.00%    100.00% |           0      0.00%    100.00% |           0      0.00%    100.00% |           0      0.00%    100.00% |           0      0.00%    100.00% |           0      0.00%    100.00% |           0      0.00%    100.00% |           0      0.00%    100.00% |           0      0.00%    100.00% |           0      0.00%    100.00% |           0      0.00%    100.00% |           0      0.00%    100.00% |           0      0.00%    100.00% |           0      0.00%    100.00% |           0      0.00%    100.00% |           0      0.00%    100.00% |           0      0.00%    100.00%
system.ruby.network.avg_vc_load::total       0.133384                      
system.ruby.network.ext_in_link_utilization     90844783                      
system.ruby.network.ext_out_link_utilization     90844783                      
system.ruby.network.flit_network_latency |   724391231                       |    44902396                       |   368446223                       |           0                       |           0                       |           0                       |           0                       |           0                      
system.ruby.network.flit_queueing_latency |   286094886                       |    53855236                       |    37644836                       |           0                       |           0                       |           0                       |           0                       |           0                      
system.ruby.network.flits_injected       |    47633476     52.43%     52.43% |     8975872      9.88%     62.31% |    34235435     37.69%    100.00% |           0      0.00%    100.00% |           0      0.00%    100.00% |           0      0.00%    100.00% |           0      0.00%    100.00% |           0      0.00%    100.00%
system.ruby.network.flits_injected::total     90844783                      
system.ruby.network.flits_received       |    47633476     52.43%     52.43% |     8975872      9.88%     62.31% |    34235435     37.69%    100.00% |           0      0.00%    100.00% |           0      0.00%    100.00% |           0      0.00%    100.00% |           0      0.00%    100.00% |           0      0.00%    100.00%
system.ruby.network.flits_received::total     90844783                      
system.ruby.network.int_link_utilization     90919244                      
system.ruby.network.packet_network_latency |   240191318                       |    44902396                       |   171313549                       |           0                       |           0                       |           0                       |           0                       |           0                      
system.ruby.network.packet_queueing_latency |    57222802                       |    53855236                       |    19689284                       |           0                       |           0                       |           0                       |           0                       |           0                      
system.ruby.network.packets_injected     |     9530520     25.76%     25.76% |     8975872     24.26%     50.02% |    18491571     49.98%    100.00% |           0      0.00%    100.00% |           0      0.00%    100.00% |           0      0.00%    100.00% |           0      0.00%    100.00% |           0      0.00%    100.00%
system.ruby.network.packets_injected::total     36997963                      
system.ruby.network.packets_received     |     9530520     25.76%     25.76% |     8975872     24.26%     50.02% |    18491571     49.98%    100.00% |           0      0.00%    100.00% |           0      0.00%    100.00% |           0      0.00%    100.00% |           0      0.00%    100.00% |           0      0.00%    100.00%
system.ruby.network.packets_received::total     36997963                      
system.ruby.network.routers0.buffer_reads     42136440                      
system.ruby.network.routers0.buffer_writes     42136440                      
system.ruby.network.routers0.crossbar_activity     42136440                      
system.ruby.network.routers0.sw_input_arbiter_activity     42170049                      
system.ruby.network.routers0.sw_output_arbiter_activity     42136440                      
system.ruby.network.routers1.buffer_reads     47724082                      
system.ruby.network.routers1.buffer_writes     47724082                      
system.ruby.network.routers1.crossbar_activity     47724082                      
system.ruby.network.routers1.sw_input_arbiter_activity     47758493                      
system.ruby.network.routers1.sw_output_arbiter_activity     47724082                      
system.ruby.network.routers2.buffer_reads     43007795                      
system.ruby.network.routers2.buffer_writes     43007795                      
system.ruby.network.routers2.crossbar_activity     43007795                      
system.ruby.network.routers2.sw_input_arbiter_activity     43040868                      
system.ruby.network.routers2.sw_output_arbiter_activity     43007795                      
system.ruby.network.routers3.buffer_reads     48895710                      
system.ruby.network.routers3.buffer_writes     48895710                      
system.ruby.network.routers3.crossbar_activity     48895710                      
system.ruby.network.routers3.sw_input_arbiter_activity     48930716                      
system.ruby.network.routers3.sw_output_arbiter_activity     48895710                      
system.ruby.outstanding_req_hist_seqr::bucket_size            1                      
system.ruby.outstanding_req_hist_seqr::max_bucket            9                      
system.ruby.outstanding_req_hist_seqr::samples   3203793753                      
system.ruby.outstanding_req_hist_seqr::mean     1.000000                      
system.ruby.outstanding_req_hist_seqr::gmean     1.000000                      
system.ruby.outstanding_req_hist_seqr::stdev     0.000075                      
system.ruby.outstanding_req_hist_seqr    |           0      0.00%      0.00% |  3203793735    100.00%    100.00% |          18      0.00%    100.00% |           0      0.00%    100.00% |           0      0.00%    100.00% |           0      0.00%    100.00% |           0      0.00%    100.00% |           0      0.00%    100.00% |           0      0.00%    100.00% |           0      0.00%    100.00%
system.ruby.outstanding_req_hist_seqr::total   3203793753                      
system.switch_cpus0.Branches                 59947003                       # Number of branches fetched
system.switch_cpus0.committedInsts          438580748                       # Number of instructions committed
system.switch_cpus0.committedOps            794902452                       # Number of ops (including micro ops) committed
system.switch_cpus0.dtb.rdAccesses          122654607                       # TLB accesses on read requests
system.switch_cpus0.dtb.rdMisses                40713                       # TLB misses on read requests
system.switch_cpus0.dtb.wrAccesses           37877928                       # TLB accesses on write requests
system.switch_cpus0.dtb.wrMisses                 8053                       # TLB misses on write requests
system.switch_cpus0.idle_fraction            0.050495                       # Percentage of idle cycles
system.switch_cpus0.itb.rdAccesses                  0                       # TLB accesses on read requests
system.switch_cpus0.itb.rdMisses                    0                       # TLB misses on read requests
system.switch_cpus0.itb.wrAccesses          639265206                       # TLB accesses on write requests
system.switch_cpus0.itb.wrMisses                17985                       # TLB misses on write requests
system.switch_cpus0.kern.inst.arm                   0                       # number of arm instructions executed
system.switch_cpus0.kern.inst.quiesce               0                       # number of quiesce instructions executed
system.switch_cpus0.not_idle_fraction        0.949505                       # Percentage of non-idle cycles
system.switch_cpus0.numCycles              2043786545                       # number of cpu cycles simulated
system.switch_cpus0.numWorkItemsCompleted            0                       # number of work items this cpu completed
system.switch_cpus0.numWorkItemsStarted             0                       # number of work items this cpu started
system.switch_cpus0.num_busy_cycles      1940586166.735784                       # Number of busy cycles
system.switch_cpus0.num_cc_register_reads    288442625                       # number of times the CC registers were read
system.switch_cpus0.num_cc_register_writes    228221285                       # number of times the CC registers were written
system.switch_cpus0.num_conditional_control_insts     45487342                       # number of instructions that are conditional controls
system.switch_cpus0.num_fp_alu_accesses     272926409                       # Number of float alu accesses
system.switch_cpus0.num_fp_insts            272926409                       # number of float instructions
system.switch_cpus0.num_fp_register_reads    411445665                       # number of times the floating registers were read
system.switch_cpus0.num_fp_register_writes    247600905                       # number of times the floating registers were written
system.switch_cpus0.num_func_calls            9015174                       # number of times a function call or return occured
system.switch_cpus0.num_idle_cycles      103200378.264216                       # Number of idle cycles
system.switch_cpus0.num_int_alu_accesses    612545762                       # Number of integer alu accesses
system.switch_cpus0.num_int_insts           612545762                       # number of integer instructions
system.switch_cpus0.num_int_register_reads   1152930749                       # number of times the integer registers were read
system.switch_cpus0.num_int_register_writes    447643771                       # number of times the integer registers were written
system.switch_cpus0.num_load_insts          122613886                       # Number of load instructions
system.switch_cpus0.num_mem_refs            160483798                       # number of memory refs
system.switch_cpus0.num_store_insts          37869912                       # Number of store instructions
system.switch_cpus0.num_vec_alu_accesses            0                       # Number of vector alu accesses
system.switch_cpus0.num_vec_insts                   0                       # number of vector instructions
system.switch_cpus0.num_vec_register_reads            0                       # number of times the vector registers were read
system.switch_cpus0.num_vec_register_writes            0                       # number of times the vector registers were written
system.switch_cpus0.op_class::No_OpClass       316087      0.04%      0.04% # Class of executed instruction
system.switch_cpus0.op_class::IntAlu        476239253     59.91%     59.95% # Class of executed instruction
system.switch_cpus0.op_class::IntMult         4883953      0.61%     60.57% # Class of executed instruction
system.switch_cpus0.op_class::IntDiv            46056      0.01%     60.57% # Class of executed instruction
system.switch_cpus0.op_class::FloatAdd       29968673      3.77%     64.34% # Class of executed instruction
system.switch_cpus0.op_class::FloatCmp              0      0.00%     64.34% # Class of executed instruction
system.switch_cpus0.op_class::FloatCvt            256      0.00%     64.34% # Class of executed instruction
system.switch_cpus0.op_class::FloatMult             0      0.00%     64.34% # Class of executed instruction
system.switch_cpus0.op_class::FloatMultAcc            0      0.00%     64.34% # Class of executed instruction
system.switch_cpus0.op_class::FloatDiv              0      0.00%     64.34% # Class of executed instruction
system.switch_cpus0.op_class::FloatMisc             0      0.00%     64.34% # Class of executed instruction
system.switch_cpus0.op_class::FloatSqrt             0      0.00%     64.34% # Class of executed instruction
system.switch_cpus0.op_class::SimdAdd             638      0.00%     64.34% # Class of executed instruction
system.switch_cpus0.op_class::SimdAddAcc            0      0.00%     64.34% # Class of executed instruction
system.switch_cpus0.op_class::SimdAlu        19959040      2.51%     66.85% # Class of executed instruction
system.switch_cpus0.op_class::SimdCmp               0      0.00%     66.85% # Class of executed instruction
system.switch_cpus0.op_class::SimdCvt             512      0.00%     66.85% # Class of executed instruction
system.switch_cpus0.op_class::SimdMisc        7642521      0.96%     67.81% # Class of executed instruction
system.switch_cpus0.op_class::SimdMult              0      0.00%     67.81% # Class of executed instruction
system.switch_cpus0.op_class::SimdMultAcc            0      0.00%     67.81% # Class of executed instruction
system.switch_cpus0.op_class::SimdShift           278      0.00%     67.81% # Class of executed instruction
system.switch_cpus0.op_class::SimdShiftAcc            0      0.00%     67.81% # Class of executed instruction
system.switch_cpus0.op_class::SimdDiv               0      0.00%     67.81% # Class of executed instruction
system.switch_cpus0.op_class::SimdSqrt              0      0.00%     67.81% # Class of executed instruction
system.switch_cpus0.op_class::SimdFloatAdd     42962640      5.40%     73.22% # Class of executed instruction
system.switch_cpus0.op_class::SimdFloatAlu            0      0.00%     73.22% # Class of executed instruction
system.switch_cpus0.op_class::SimdFloatCmp        40000      0.01%     73.22% # Class of executed instruction
system.switch_cpus0.op_class::SimdFloatCvt      8493079      1.07%     74.29% # Class of executed instruction
system.switch_cpus0.op_class::SimdFloatDiv      1016055      0.13%     74.42% # Class of executed instruction
system.switch_cpus0.op_class::SimdFloatMisc            0      0.00%     74.42% # Class of executed instruction
system.switch_cpus0.op_class::SimdFloatMult     42847139      5.39%     79.81% # Class of executed instruction
system.switch_cpus0.op_class::SimdFloatMultAcc            0      0.00%     79.81% # Class of executed instruction
system.switch_cpus0.op_class::SimdFloatSqrt         2508      0.00%     79.81% # Class of executed instruction
system.switch_cpus0.op_class::SimdReduceAdd            0      0.00%     79.81% # Class of executed instruction
system.switch_cpus0.op_class::SimdReduceAlu            0      0.00%     79.81% # Class of executed instruction
system.switch_cpus0.op_class::SimdReduceCmp            0      0.00%     79.81% # Class of executed instruction
system.switch_cpus0.op_class::SimdFloatReduceAdd            0      0.00%     79.81% # Class of executed instruction
system.switch_cpus0.op_class::SimdFloatReduceCmp            0      0.00%     79.81% # Class of executed instruction
system.switch_cpus0.op_class::SimdAes               0      0.00%     79.81% # Class of executed instruction
system.switch_cpus0.op_class::SimdAesMix            0      0.00%     79.81% # Class of executed instruction
system.switch_cpus0.op_class::SimdSha1Hash            0      0.00%     79.81% # Class of executed instruction
system.switch_cpus0.op_class::SimdSha1Hash2            0      0.00%     79.81% # Class of executed instruction
system.switch_cpus0.op_class::SimdSha256Hash            0      0.00%     79.81% # Class of executed instruction
system.switch_cpus0.op_class::SimdSha256Hash2            0      0.00%     79.81% # Class of executed instruction
system.switch_cpus0.op_class::SimdShaSigma2            0      0.00%     79.81% # Class of executed instruction
system.switch_cpus0.op_class::SimdShaSigma3            0      0.00%     79.81% # Class of executed instruction
system.switch_cpus0.op_class::SimdPredAlu            0      0.00%     79.81% # Class of executed instruction
system.switch_cpus0.op_class::MemRead        52719619      6.63%     86.44% # Class of executed instruction
system.switch_cpus0.op_class::MemWrite       23962876      3.01%     89.46% # Class of executed instruction
system.switch_cpus0.op_class::FloatMemRead     69894267      8.79%     98.25% # Class of executed instruction
system.switch_cpus0.op_class::FloatMemWrite     13907036      1.75%    100.00% # Class of executed instruction
system.switch_cpus0.op_class::IprAccess             0      0.00%    100.00% # Class of executed instruction
system.switch_cpus0.op_class::InstPrefetch            0      0.00%    100.00% # Class of executed instruction
system.switch_cpus0.op_class::total         794902486                       # Class of executed instruction
system.switch_cpus1.Branches                 59690055                       # Number of branches fetched
system.switch_cpus1.committedInsts          438215289                       # Number of instructions committed
system.switch_cpus1.committedOps            793177628                       # Number of ops (including micro ops) committed
system.switch_cpus1.dtb.rdAccesses          122387315                       # TLB accesses on read requests
system.switch_cpus1.dtb.rdMisses                39809                       # TLB misses on read requests
system.switch_cpus1.dtb.wrAccesses           37606872                       # TLB accesses on write requests
system.switch_cpus1.dtb.wrMisses                 8441                       # TLB misses on write requests
system.switch_cpus1.idle_fraction            0.008415                       # Percentage of idle cycles
system.switch_cpus1.itb.rdAccesses                  0                       # TLB accesses on read requests
system.switch_cpus1.itb.rdMisses                    0                       # TLB misses on read requests
system.switch_cpus1.itb.wrAccesses          638815160                       # TLB accesses on write requests
system.switch_cpus1.itb.wrMisses                18640                       # TLB misses on write requests
system.switch_cpus1.kern.inst.arm                   0                       # number of arm instructions executed
system.switch_cpus1.kern.inst.quiesce               0                       # number of quiesce instructions executed
[...]
system.mem_ctrls1.bytesReadDRAM             127763392                       # Total number of bytes read from DRAM
system.mem_ctrls1.bytesReadWrQ               22363776                       # Total number of bytes read from write queue
system.mem_ctrls1.bytesWritten               49756992                       # Total number of bytes written to DRAM
system.mem_ctrls1.bytesReadSys              150127168                       # Total read bytes from the system interface side
system.mem_ctrls1.bytesWrittenSys            62164608                       # Total written bytes from the system interface side
system.mem_ctrls1.avgRdBW                      125.03                       # Average DRAM read bandwidth in MiByte/s
system.mem_ctrls1.avgWrBW                       48.69                       # Average achieved write bandwidth in MiByte/s
system.mem_ctrls1.avgRdBWSys                   146.91                       # Average system read bandwidth in MiByte/s
system.mem_ctrls1.avgWrBWSys                    60.83                       # Average system write bandwidth in MiByte/s
system.mem_ctrls1.peakBW                     12800.00                       # Theoretical peak bandwidth in MiByte/s
system.mem_ctrls1.busUtil                        1.36                       # Data bus utilization in percentage
system.mem_ctrls1.busUtilRead                    0.98                       # Data bus utilization in percentage for reads
system.mem_ctrls1.busUtilWrite                   0.38                       # Data bus utilization in percentage for writes
system.mem_ctrls1.totGap                 1021893339000                       # Total gap between requests
system.mem_ctrls1.avgGap                    308072.10                       # Average gap between requests
system.mem_ctrls1.masterReadBytes::.ruby.dir_cntrl1    127763392                       # Per-master bytes read from memory
system.mem_ctrls1.masterWriteBytes::.ruby.dir_cntrl1     49756992                       # Per-master bytes write to memory
system.mem_ctrls1.masterReadRate::.ruby.dir_cntrl1 125026149.621816828847                       # Per-master bytes read from memory rate (Bytes/sec)
system.mem_ctrls1.masterWriteRate::.ruby.dir_cntrl1 48690982.832731485367                       # Per-master bytes write to memory rate (Bytes/sec)
system.mem_ctrls1.masterReadAccesses::.ruby.dir_cntrl1      2345737                       # Per-master read serviced memory accesses
system.mem_ctrls1.masterWriteAccesses::.ruby.dir_cntrl1       971322                       # Per-master write serviced memory accesses
system.mem_ctrls1.masterReadTotalLat::.ruby.dir_cntrl1  63897191530                       # Per-master read total memory access latency
system.mem_ctrls1.masterWriteTotalLat::.ruby.dir_cntrl1 24510177930316                       # Per-master write total memory access latency
system.mem_ctrls1.masterReadAvgLat::.ruby.dir_cntrl1     27239.71                       # Per-master read average memory access latency
system.mem_ctrls1.masterWriteAvgLat::.ruby.dir_cntrl1  25233833.82                       # Per-master write average memory access latency
system.mem_ctrls1.pageHitRate                   56.87                       # Row buffer hit rate, read and write combined
system.mem_ctrls1.rank1.actEnergy          4246493580                       # Energy for activate commands per rank (pJ)
system.mem_ctrls1.rank1.preEnergy          2257053480                       # Energy for precharge commands per rank (pJ)
system.mem_ctrls1.rank1.readEnergy         7722352680                       # Energy for read commands per rank (pJ)
system.mem_ctrls1.rank1.writeEnergy        2206723680                       # Energy for write commands per rank (pJ)
system.mem_ctrls1.rank1.refreshEnergy    80667197520.000015                       # Energy for refresh commands per rank (pJ)
system.mem_ctrls1.rank1.actBackEnergy    381998220690                       # Energy for active background per rank (pJ)
system.mem_ctrls1.rank1.preBackEnergy     70724336160                       # Energy for precharge background per rank (pJ)
system.mem_ctrls1.rank1.actPowerDownEnergy            0                       # Energy for active power-down per rank (pJ)
system.mem_ctrls1.rank1.prePowerDownEnergy            0                       # Energy for precharge power-down per rank (pJ)
system.mem_ctrls1.rank1.selfRefreshEnergy            0                       # Energy for self refresh per rank (pJ)
system.mem_ctrls1.rank1.totalEnergy      549822377790                       # Total energy per rank (pJ)
system.mem_ctrls1.rank1.averagePower       538.042813                       # Core power per rank (mW)
system.mem_ctrls1.rank1.totalIdleTime               0                       # Total Idle time Per DRAM Rank
system.mem_ctrls1.rank1.memoryStateTime::IDLE 180378710414                       # Time in different power states
system.mem_ctrls1.rank1.memoryStateTime::REF  34123180000                       # Time in different power states
system.mem_ctrls1.rank1.memoryStateTime::SREF            0                       # Time in different power states
system.mem_ctrls1.rank1.memoryStateTime::PRE_PDN            0                       # Time in different power states
system.mem_ctrls1.rank1.memoryStateTime::ACT 807391468587                       # Time in different power states
system.mem_ctrls1.rank1.memoryStateTime::ACT_PDN            0                       # Time in different power states
system.mem_ctrls1.rank0.actEnergy          4294260180                       # Energy for activate commands per rank (pJ)
system.mem_ctrls1.rank0.preEnergy          2282438235                       # Energy for precharge commands per rank (pJ)
system.mem_ctrls1.rank0.readEnergy         6531250740                       # Energy for read commands per rank (pJ)
system.mem_ctrls1.rank0.writeEnergy        1851580980                       # Energy for write commands per rank (pJ)
system.mem_ctrls1.rank0.refreshEnergy    80667197520.000015                       # Energy for refresh commands per rank (pJ)
system.mem_ctrls1.rank0.actBackEnergy    306504169410                       # Energy for active background per rank (pJ)
system.mem_ctrls1.rank0.preBackEnergy    134298242400                       # Energy for precharge background per rank (pJ)
system.mem_ctrls1.rank0.actPowerDownEnergy            0                       # Energy for active power-down per rank (pJ)
system.mem_ctrls1.rank0.prePowerDownEnergy            0                       # Energy for precharge power-down per rank (pJ)
system.mem_ctrls1.rank0.selfRefreshEnergy            0                       # Energy for self refresh per rank (pJ)
system.mem_ctrls1.rank0.totalEnergy      536429139465                       # Total energy per rank (pJ)
system.mem_ctrls1.rank0.averagePower       524.936516                       # Core power per rank (mW)
system.mem_ctrls1.rank0.totalIdleTime               0                       # Total Idle time Per DRAM Rank
system.mem_ctrls1.rank0.memoryStateTime::IDLE 346286518845                       # Time in different power states
system.mem_ctrls1.rank0.memoryStateTime::REF  34123180000                       # Time in different power states
system.mem_ctrls1.rank0.memoryStateTime::SREF            0                       # Time in different power states
system.mem_ctrls1.rank0.memoryStateTime::PRE_PDN            0                       # Time in different power states
system.mem_ctrls1.rank0.memoryStateTime::ACT 641483660156                       # Time in different power states
system.mem_ctrls1.rank0.memoryStateTime::ACT_PDN            0                       # Time in different power states
system.mem_ctrls1.power_state.pwrStateResidencyTicks::UNDEFINED 98395754785501                       # Cumulative time (in ticks) in various power states
system.cpu_voltage_domain.voltage                   1                       # Voltage in Volts
system.iobus.trans_dist::ReadReq                  566                       # Transaction distribution
system.iobus.trans_dist::ReadResp                 566                       # Transaction distribution
system.iobus.trans_dist::WriteReq                4564                       # Transaction distribution
system.iobus.trans_dist::WriteResp               4564                       # Transaction distribution
system.iobus.pkt_count_system.pc.south_bridge.io_apic.int_master::system.ruby.l1_cntrl1.sequencer.pio-slave-port          366                       # Packet count per connected master and slave (bytes)
system.iobus.pkt_count_system.pc.south_bridge.io_apic.int_master::total          366                       # Packet count per connected master and slave (bytes)
system.iobus.pkt_count_system.ruby.l1_cntrl0.sequencer.mem-master-port::system.ruby.l1_cntrl0.sequencer.pio-slave-port         2086                       # Packet count per connected master and slave (bytes)
system.iobus.pkt_count_system.ruby.l1_cntrl0.sequencer.mem-master-port::system.ruby.l1_cntrl1.sequencer.pio-slave-port            2                       # Packet count per connected master and slave (bytes)
system.iobus.pkt_count_system.ruby.l1_cntrl0.sequencer.mem-master-port::system.ruby.l1_cntrl2.sequencer.pio-slave-port            2                       # Packet count per connected master and slave (bytes)
system.iobus.pkt_count_system.ruby.l1_cntrl0.sequencer.mem-master-port::system.ruby.l1_cntrl3.sequencer.pio-slave-port            2                       # Packet count per connected master and slave (bytes)
system.iobus.pkt_count_system.ruby.l1_cntrl0.sequencer.mem-master-port::total         2092                       # Packet count per connected master and slave (bytes)
system.iobus.pkt_count_system.ruby.l1_cntrl1.sequencer.mem-master-port::system.pc.south_bridge.ide.pio           24                       # Packet count per connected master and slave (bytes)
system.iobus.pkt_count_system.ruby.l1_cntrl1.sequencer.mem-master-port::system.pc.com_1.pio         1466                       # Packet count per connected master and slave (bytes)
system.iobus.pkt_count_system.ruby.l1_cntrl1.sequencer.mem-master-port::system.ruby.l1_cntrl0.sequencer.pio-slave-port           14                       # Packet count per connected master and slave (bytes)
system.iobus.pkt_count_system.ruby.l1_cntrl1.sequencer.mem-master-port::system.ruby.l1_cntrl1.sequencer.pio-slave-port         2140                       # Packet count per connected master and slave (bytes)
system.iobus.pkt_count_system.ruby.l1_cntrl1.sequencer.mem-master-port::system.ruby.l1_cntrl3.sequencer.pio-slave-port            2                       # Packet count per connected master and slave (bytes)
system.iobus.pkt_count_system.ruby.l1_cntrl1.sequencer.mem-master-port::total         3646                       # Packet count per connected master and slave (bytes)
system.iobus.pkt_count_system.ruby.l1_cntrl2.sequencer.mem-master-port::system.ruby.l1_cntrl0.sequencer.pio-slave-port            2                       # Packet count per connected master and slave (bytes)
system.iobus.pkt_count_system.ruby.l1_cntrl2.sequencer.mem-master-port::system.ruby.l1_cntrl2.sequencer.pio-slave-port         2058                       # Packet count per connected master and slave (bytes)
system.iobus.pkt_count_system.ruby.l1_cntrl2.sequencer.mem-master-port::total         2060                       # Packet count per connected master and slave (bytes)
system.iobus.pkt_count_system.ruby.l1_cntrl3.sequencer.mem-master-port::system.pc.south_bridge.ide.pio           34                       # Packet count per connected master and slave (bytes)
system.iobus.pkt_count_system.ruby.l1_cntrl3.sequencer.mem-master-port::system.ruby.l1_cntrl0.sequencer.pio-slave-port            2                       # Packet count per connected master and slave (bytes)
system.iobus.pkt_count_system.ruby.l1_cntrl3.sequencer.mem-master-port::system.ruby.l1_cntrl3.sequencer.pio-slave-port         2060                       # Packet count per connected master and slave (bytes)
system.iobus.pkt_count_system.ruby.l1_cntrl3.sequencer.mem-master-port::total         2096                       # Packet count per connected master and slave (bytes)
system.iobus.pkt_count::total                   10260                       # Packet count per connected master and slave (bytes)
system.iobus.pkt_size_system.pc.south_bridge.io_apic.int_master::system.ruby.l1_cntrl1.sequencer.pio-slave-port          732                       # Cumulative packet size per connected master and slave (bytes)
system.iobus.pkt_size_system.pc.south_bridge.io_apic.int_master::total          732                       # Cumulative packet size per connected master and slave (bytes)
system.iobus.pkt_size_system.ruby.l1_cntrl0.sequencer.mem-master-port::system.ruby.l1_cntrl0.sequencer.pio-slave-port         4172                       # Cumulative packet size per connected master and slave (bytes)
system.iobus.pkt_size_system.ruby.l1_cntrl0.sequencer.mem-master-port::system.ruby.l1_cntrl1.sequencer.pio-slave-port            4                       # Cumulative packet size per connected master and slave (bytes)
system.iobus.pkt_size_system.ruby.l1_cntrl0.sequencer.mem-master-port::system.ruby.l1_cntrl2.sequencer.pio-slave-port            4                       # Cumulative packet size per connected master and slave (bytes)
system.iobus.pkt_size_system.ruby.l1_cntrl0.sequencer.mem-master-port::system.ruby.l1_cntrl3.sequencer.pio-slave-port            4                       # Cumulative packet size per connected master and slave (bytes)
system.iobus.pkt_size_system.ruby.l1_cntrl0.sequencer.mem-master-port::total         4184                       # Cumulative packet size per connected master and slave (bytes)
system.iobus.pkt_size_system.ruby.l1_cntrl1.sequencer.mem-master-port::system.pc.south_bridge.ide.pio           12                       # Cumulative packet size per connected master and slave (bytes)
system.iobus.pkt_size_system.ruby.l1_cntrl1.sequencer.mem-master-port::system.pc.com_1.pio          733                       # Cumulative packet size per connected master and slave (bytes)
system.iobus.pkt_size_system.ruby.l1_cntrl1.sequencer.mem-master-port::system.ruby.l1_cntrl0.sequencer.pio-slave-port           28                       # Cumulative packet size per connected master and slave (bytes)
system.iobus.pkt_size_system.ruby.l1_cntrl1.sequencer.mem-master-port::system.ruby.l1_cntrl1.sequencer.pio-slave-port         4280                       # Cumulative packet size per connected master and slave (bytes)
system.iobus.pkt_size_system.ruby.l1_cntrl1.sequencer.mem-master-port::system.ruby.l1_cntrl3.sequencer.pio-slave-port            4                       # Cumulative packet size per connected master and slave (bytes)
system.iobus.pkt_size_system.ruby.l1_cntrl1.sequencer.mem-master-port::total         5057                       # Cumulative packet size per connected master and slave (bytes)
system.iobus.pkt_size_system.ruby.l1_cntrl2.sequencer.mem-master-port::system.ruby.l1_cntrl0.sequencer.pio-slave-port            4                       # Cumulative packet size per connected master and slave (bytes)
system.iobus.pkt_size_system.ruby.l1_cntrl2.sequencer.mem-master-port::system.ruby.l1_cntrl2.sequencer.pio-slave-port         4116                       # Cumulative packet size per connected master and slave (bytes)
system.iobus.pkt_size_system.ruby.l1_cntrl2.sequencer.mem-master-port::total         4120                       # Cumulative packet size per connected master and slave (bytes)
system.iobus.pkt_size_system.ruby.l1_cntrl3.sequencer.mem-master-port::system.pc.south_bridge.ide.pio           20                       # Cumulative packet size per connected master and slave (bytes)
system.iobus.pkt_size_system.ruby.l1_cntrl3.sequencer.mem-master-port::system.ruby.l1_cntrl0.sequencer.pio-slave-port            4                       # Cumulative packet size per connected master and slave (bytes)
system.iobus.pkt_size_system.ruby.l1_cntrl3.sequencer.mem-master-port::system.ruby.l1_cntrl3.sequencer.pio-slave-port         4120                       # Cumulative packet size per connected master and slave (bytes)
system.iobus.pkt_size_system.ruby.l1_cntrl3.sequencer.mem-master-port::total         4144                       # Cumulative packet size per connected master and slave (bytes)
system.iobus.pkt_size::total                    18237                       # Cumulative packet size per connected master and slave (bytes)
system.iobus.reqLayer2.occupancy                50500                       # Layer occupancy (ticks)
system.iobus.reqLayer2.utilization                0.0                       # Layer utilization (%)
system.iobus.power_state.pwrStateResidencyTicks::UNDEFINED 98395754785501                       # Cumulative time (in ticks) in various power states
system.iobus.reqLayer19.occupancy             2801020                       # Layer occupancy (ticks)
system.iobus.reqLayer19.utilization               0.0                       # Layer utilization (%)
system.iobus.reqLayer17.occupancy             2861523                       # Layer occupancy (ticks)
system.iobus.reqLayer17.utilization               0.0                       # Layer utilization (%)
system.iobus.reqLayer12.occupancy              988500                       # Layer occupancy (ticks)
system.iobus.reqLayer12.utilization               0.0                       # Layer utilization (%)
system.iobus.reqLayer18.occupancy             3271979                       # Layer occupancy (ticks)
system.iobus.reqLayer18.utilization               0.0                       # Layer utilization (%)
system.iobus.respLayer9.occupancy             1568000                       # Layer occupancy (ticks)
system.iobus.respLayer9.utilization               0.0                       # Layer utilization (%)
system.iobus.respLayer5.occupancy             2915500                       # Layer occupancy (ticks)
system.iobus.respLayer5.utilization               0.0                       # Layer utilization (%)
system.iobus.respLayer7.occupancy             1545500                       # Layer occupancy (ticks)
system.iobus.respLayer7.utilization               0.0                       # Layer utilization (%)
system.iobus.respLayer0.occupancy              271499                       # Layer occupancy (ticks)
system.iobus.respLayer0.utilization               0.0                       # Layer utilization (%)
system.iobus.respLayer3.occupancy             1571000                       # Layer occupancy (ticks)
system.iobus.respLayer3.utilization               0.0                       # Layer utilization (%)
system.iobus.reqLayer20.occupancy             2833973                       # Layer occupancy (ticks)
system.iobus.reqLayer20.utilization               0.0                       # Layer utilization (%)

---------- End Simulation Statistics   ----------
pancy (ticks)
system.iobus.respLayer5.utilization               0.0                       # Layer utilization (%)
system.iobus.respLayer7.occupancy             1566500                       # Layer occupancy (ticks)
system.iobus.respLayer7.utilization               0.0                       # Layer utilization (%)
system.iobus.respLayer0.occupancy              151999                       # Layer occupancy (ticks)
system.iobus.respLayer0.utilization               0.0                       # Layer utilization (%)
system.iobus.respLayer3.occupancy             1540000                       # Layer occupancy (ticks)
system.iobus.respLayer3.utilization               0.0                       # Layer utilization (%)
system.iobus.reqLayer20.occupancy             2804487                       # Layer occupancy (ticks)
system.iobus.reqLayer20.utilization               0.0                       # Layer utilization (%)

---------- End Simulation Statistics   ----------
  ----------
