
---------- Begin Simulation Statistics ----------
final_tick                               100658610853001                       # Number of ticks from beginning of simulation (restored from checkpoints and never reset)
host_inst_rate                                 728044                       # Simulator instruction rate (inst/s)
host_mem_usage                                1785360                       # Number of bytes of host memory used
host_op_rate                                   877700                       # Simulator op (including micro ops) rate (op/s)
host_seconds                                  9257.58                       # Real time elapsed on the host
host_tick_rate                              133357675                       # Simulator tick rate (ticks/s)
sim_freq                                 1000000000000                       # Frequency of simulated ticks
sim_insts                                  6739927668                       # Number of instructions simulated
sim_ops                                    8125375831                       # Number of ops (including micro ops) simulated
sim_seconds                                  1.234569                       # Number of seconds simulated
sim_ticks                                1234569425501                       # Number of ticks simulated
system.cpu0.committedInsts                          0                       # Number of instructions committed
system.cpu0.dtb.rdAccesses                          0                       # TLB accesses on read requests
system.cpu0.dtb.rdMisses                            0                       # TLB misses on read requests
system.cpu0.dtb.wrAccesses                          0                       # TLB accesses on write requests
system.cpu0.dtb.wrMisses                            0                       # TLB misses on write requests
system.cpu0.itb.rdAccesses                          0                       # TLB accesses on read requests
system.cpu0.itb.rdMisses                            0                       # TLB misses on read requests
system.cpu0.itb.wrAccesses                          0                       # TLB accesses on write requests
system.cpu0.itb.wrMisses                            0                       # TLB misses on write requests
system.cpu0.kern.inst.arm                           0                       # number of arm instructions executed
system.cpu0.kern.inst.quiesce                       0                       # number of quiesce instructions executed
system.cpu0.numCoalescedMMIO                        0                       # number of coalesced memory mapped IO requests
system.cpu0.numCycles                               0                       # number of cpu cycles simulated
system.cpu0.numExitSignal                           0                       # exits due to signal delivery
system.cpu0.numHalt                                 0                       # number of VM exits due to wait for interrupt instructions
system.cpu0.numHypercalls                           0                       # number of hypercalls
system.cpu0.numIO                                   0                       # number of VM exits due to legacy IO
system.cpu0.numInterrupts                           0                       # number of interrupts delivered
system.cpu0.numMMIO                                 0                       # number of VM exits due to memory mapped IO
system.cpu0.numVMExits                              0                       # total number of KVM exits
system.cpu0.numVMHalfEntries                        0                       # number of KVM entries to finalize pending operations
system.cpu0.numWorkItemsCompleted                   0                       # number of work items this cpu completed
system.cpu0.numWorkItemsStarted                     0                       # number of work items this cpu started
system.cpu1.committedInsts                          0                       # Number of instructions committed
system.cpu1.dtb.rdAccesses                          0                       # TLB accesses on read requests
system.cpu1.dtb.rdMisses                            0                       # TLB misses on read requests
system.cpu1.dtb.wrAccesses                          0                       # TLB accesses on write requests
system.cpu1.dtb.wrMisses                            0                       # TLB misses on write requests
system.cpu1.itb.rdAccesses                          0                       # TLB accesses on read requests
system.cpu1.itb.rdMisses                            0                       # TLB misses on read requests
system.cpu1.itb.wrAccesses                          0                       # TLB accesses on write requests
system.cpu1.itb.wrMisses                            0                       # TLB misses on write requests
system.cpu1.kern.inst.arm                           0                       # number of arm instructions executed
system.cpu1.kern.inst.quiesce                       0                       # number of quiesce instructions executed
system.cpu1.numCoalescedMMIO                        0                       # number of coalesced memory mapped IO requests
system.cpu1.numCycles                               0                       # number of cpu cycles simulated
system.cpu1.numExitSignal                           0                       # exits due to signal delivery
system.cpu1.numHalt                                 0                       # number of VM exits due to wait for interrupt instructions
system.cpu1.numHypercalls                           0                       # number of hypercalls
system.cpu1.numIO                                   0                       # number of VM exits due to legacy IO
system.cpu1.numInterrupts                           0                       # number of interrupts delivered
system.cpu1.numMMIO                                 0                       # number of VM exits due to memory mapped IO
system.cpu1.numVMExits                              0                       # total number of KVM exits
system.cpu1.numVMHalfEntries                        0                       # number of KVM entries to finalize pending operations
system.cpu1.numWorkItemsCompleted                   0                       # number of work items this cpu completed
system.cpu1.numWorkItemsStarted                     0                       # number of work items this cpu started
system.cpu2.committedInsts                          0                       # Number of instructions committed
system.cpu2.dtb.rdAccesses                          0                       # TLB accesses on read requests
system.cpu2.dtb.rdMisses                            0                       # TLB misses on read requests
system.cpu2.dtb.wrAccesses                          0                       # TLB accesses on write requests
system.cpu2.dtb.wrMisses                            0                       # TLB misses on write requests
system.cpu2.itb.rdAccesses                          0                       # TLB accesses on read requests
system.cpu2.itb.rdMisses                            0                       # TLB misses on read requests
system.cpu2.itb.wrAccesses                          0                       # TLB accesses on write requests
system.cpu2.itb.wrMisses                            0                       # TLB misses on write requests
system.cpu2.kern.inst.arm                           0                       # number of arm instructions executed
system.cpu2.kern.inst.quiesce                       0                       # number of quiesce instructions executed
system.cpu2.numCoalescedMMIO                        0                       # number of coalesced memory mapped IO requests
system.cpu2.numCycles                               0                       # number of cpu cycles simulated
system.cpu2.numExitSignal                           0                       # exits due to signal delivery
system.cpu2.numHalt                                 0                       # number of VM exits due to wait for interrupt instructions
system.cpu2.numHypercalls                           0                       # number of hypercalls
system.cpu2.numIO                                   0                       # number of VM exits due to legacy IO
system.cpu2.numInterrupts                           0                       # number of interrupts delivered
system.cpu2.numMMIO                                 0                       # number of VM exits due to memory mapped IO
system.cpu2.numVMExits                              0                       # total number of KVM exits
system.cpu2.numVMHalfEntries                        0                       # number of KVM entries to finalize pending operations
system.cpu2.numWorkItemsCompleted                   0                       # number of work items this cpu completed
system.cpu2.numWorkItemsStarted                     0                       # number of work items this cpu started
system.cpu3.committedInsts                          0                       # Number of instructions committed
system.cpu3.dtb.rdAccesses                          0                       # TLB accesses on read requests
system.cpu3.dtb.rdMisses                            0                       # TLB misses on read requests
system.cpu3.dtb.wrAccesses                          0                       # TLB accesses on write requests
system.cpu3.dtb.wrMisses                            0                       # TLB misses on write requests
system.cpu3.itb.rdAccesses                          0                       # TLB accesses on read requests
system.cpu3.itb.rdMisses                            0                       # TLB misses on read requests
system.cpu3.itb.wrAccesses                          0                       # TLB accesses on write requests
system.cpu3.itb.wrMisses                            0                       # TLB misses on write requests
system.cpu3.kern.inst.arm                           0                       # number of arm instructions executed
system.cpu3.kern.inst.quiesce                       0                       # number of quiesce instructions executed
system.cpu3.numCoalescedMMIO                        0                       # number of coalesced memory mapped IO requests
system.cpu3.numCycles                               0                       # number of cpu cycles simulated
system.cpu3.numExitSignal                           0                       # exits due to signal delivery
system.cpu3.numHalt                                 0                       # number of VM exits due to wait for interrupt instructions
system.cpu3.numHypercalls                           0                       # number of hypercalls
system.cpu3.numIO                                   0                       # number of VM exits due to legacy IO
system.cpu3.numInterrupts                           0                       # number of interrupts delivered
system.cpu3.numMMIO                                 0                       # number of VM exits due to memory mapped IO
system.cpu3.numVMExits                              0                       # total number of KVM exits
system.cpu3.numVMHalfEntries                        0                       # number of KVM entries to finalize pending operations
system.cpu3.numWorkItemsCompleted                   0                       # number of work items this cpu completed
system.cpu3.numWorkItemsStarted                     0                       # number of work items this cpu started
system.pc.south_bridge.ide.disks.dma_read_bytes       270336                       # Number of bytes transfered via DMA reads (not PRD).
system.pc.south_bridge.ide.disks.dma_read_full_pages           66                       # Number of full page size DMA reads (not PRD).
system.pc.south_bridge.ide.disks.dma_read_txs           66                       # Number of DMA read transactions (not PRD).
system.pc.south_bridge.ide.disks.dma_write_bytes       425984                       # Number of bytes transfered via DMA writes.
system.pc.south_bridge.ide.disks.dma_write_full_pages          104                       # Number of full page size DMA writes.
system.pc.south_bridge.ide.disks.dma_write_txs          104                       # Number of DMA write transactions.
system.ruby.DMA_Controller.I.allocI_load |        4245    100.00%    100.00% |           0      0.00%    100.00%
system.ruby.DMA_Controller.I.allocI_load::total         4245                      
system.ruby.DMA_Controller.I.allocI_store |        6656    100.00%    100.00% |           0      0.00%    100.00%
system.ruby.DMA_Controller.I.allocI_store::total         6656                      
system.ruby.DMA_Controller.I.deallocnet0from_in |        6499    100.00%    100.00% |           0      0.00%    100.00%
system.ruby.DMA_Controller.I.deallocnet0from_in::total         6499                      
system.ruby.DMA_Controller.I.deallocnet2from_in |        3384    100.00%    100.00% |           0      0.00%    100.00%
system.ruby.DMA_Controller.I.deallocnet2from_in::total         3384                      
system.ruby.DMA_Controller.M.allocTBE    |        6656    100.00%    100.00% |           0      0.00%    100.00%
system.ruby.DMA_Controller.M.allocTBE::total         6656                      
system.ruby.DMA_Controller.M.externalstoreMnet1from_in |        6656    100.00%    100.00% |           0      0.00%    100.00%
system.ruby.DMA_Controller.M.externalstoreMnet1from_in::total         6656                      
system.ruby.DMA_Controller.M_evict.Stallmandatory_in |       95507    100.00%    100.00% |           0      0.00%    100.00%
system.ruby.DMA_Controller.M_evict.Stallmandatory_in::total        95507                      
system.ruby.DMA_Controller.S.SloadSEvent |          92    100.00%    100.00% |           0      0.00%    100.00%
system.ruby.DMA_Controller.S.SloadSEvent::total           92                      
system.ruby.DMA_Controller.S.allocTBE    |        3385    100.00%    100.00% |           0      0.00%    100.00%
system.ruby.DMA_Controller.S.allocTBE::total         3385                      
system.ruby.DMA_Controller.S.deallocTBE  |         157    100.00%    100.00% |           0      0.00%    100.00%
system.ruby.DMA_Controller.S.deallocTBE::total          157                      
system.ruby.DMA_Controller.S.externalloadSnet0from_in |        4215    100.00%    100.00% |           0      0.00%    100.00%
system.ruby.DMA_Controller.S.externalloadSnet0from_in::total         4215                      
system.ruby.DMA_Controller.S.externalloadSrespfrom_in |          30    100.00%    100.00% |           0      0.00%    100.00%
system.ruby.DMA_Controller.S.externalloadSrespfrom_in::total           30                      
system.ruby.DMA_Controller.S_evict.Stallmandatory_in |       10768    100.00%    100.00% |           0      0.00%    100.00%
system.ruby.DMA_Controller.S_evict.Stallmandatory_in::total        10768                      
system.ruby.DMA_Controller.SloadSEvent   |          92    100.00%    100.00% |           0      0.00%    100.00%
system.ruby.DMA_Controller.SloadSEvent::total           92                      
system.ruby.DMA_Controller.Stallmandatory_in |      106275    100.00%    100.00% |           0      0.00%    100.00%
system.ruby.DMA_Controller.Stallmandatory_in::total       106275                      
system.ruby.DMA_Controller.allocI_load   |        4245    100.00%    100.00% |           0      0.00%    100.00%
system.ruby.DMA_Controller.allocI_load::total         4245                      
system.ruby.DMA_Controller.allocI_store  |        6656    100.00%    100.00% |           0      0.00%    100.00%
system.ruby.DMA_Controller.allocI_store::total         6656                      
system.ruby.DMA_Controller.allocTBE      |       10041    100.00%    100.00% |           0      0.00%    100.00%
system.ruby.DMA_Controller.allocTBE::total        10041                      
system.ruby.DMA_Controller.deallocTBE    |         157    100.00%    100.00% |           0      0.00%    100.00%
system.ruby.DMA_Controller.deallocTBE::total          157                      
system.ruby.DMA_Controller.deallocnet0from_in |        6499    100.00%    100.00% |           0      0.00%    100.00%
system.ruby.DMA_Controller.deallocnet0from_in::total         6499                      
system.ruby.DMA_Controller.deallocnet2from_in |        3384    100.00%    100.00% |           0      0.00%    100.00%
system.ruby.DMA_Controller.deallocnet2from_in::total         3384                      
system.ruby.DMA_Controller.externalloadSnet0from_in |        4215    100.00%    100.00% |           0      0.00%    100.00%
system.ruby.DMA_Controller.externalloadSnet0from_in::total         4215                      
system.ruby.DMA_Controller.externalloadSrespfrom_in |          30    100.00%    100.00% |           0      0.00%    100.00%
system.ruby.DMA_Controller.externalloadSrespfrom_in::total           30                      
system.ruby.DMA_Controller.externalstoreMnet1from_in |        6656    100.00%    100.00% |           0      0.00%    100.00%
system.ruby.DMA_Controller.externalstoreMnet1from_in::total         6656                      
system.ruby.Directory_Controller.I.allocTBE |     2951116     25.01%     25.01% |     2951875     25.01%     50.02% |     2965624     25.13%     75.15% |     2932011     24.85%    100.00%
system.ruby.Directory_Controller.I.allocTBE::total     11800626                      
system.ruby.Directory_Controller.I.deallocTBE |     2950163     25.01%     25.01% |     2950923     25.01%     50.02% |     2964702     25.13%     75.15% |     2931029     24.85%    100.00%
system.ruby.Directory_Controller.I.deallocTBE::total     11796817                      
system.ruby.Directory_Controller.I_GetSL1C1_0.Stallreqto_in |         931     51.13%     51.13% |         201     11.04%     62.16% |         632     34.71%     96.87% |          57      3.13%    100.00%
system.ruby.Directory_Controller.I_GetSL1C1_0.Stallreqto_in::total         1821                      
system.ruby.Directory_Controller.M.allocTBE |     1686616     24.76%     24.76% |     1705907     25.04%     49.79% |     1708248     25.07%     74.87% |     1712383     25.13%    100.00%
system.ruby.Directory_Controller.M.allocTBE::total      6813154                      
system.ruby.Directory_Controller.M.deallocTBE |     1686752     24.76%     24.76% |     1706027     25.04%     49.79% |     1708381     25.07%     74.87% |     1712533     25.13%    100.00%
system.ruby.Directory_Controller.M.deallocTBE::total      6813693                      
system.ruby.Directory_Controller.M_GetS.Progress |        3767     33.10%     33.10% |        2319     20.38%     53.48% |        2571     22.59%     76.08% |        2722     23.92%    100.00%
system.ruby.Directory_Controller.M_GetS.Progress::total        11379                      
system.ruby.Directory_Controller.M_GetS.Stallreqto_in |           2     15.38%     15.38% |           0      0.00%     15.38% |           9     69.23%     84.62% |           2     15.38%    100.00%
system.ruby.Directory_Controller.M_GetS.Stallreqto_in::total           13                      
system.ruby.Directory_Controller.M_GetS_WBL1C1_0.Stallreqto_in |         127     22.68%     22.68% |         174     31.07%     53.75% |         152     27.14%     80.89% |         107     19.11%    100.00%
system.ruby.Directory_Controller.M_GetS_WBL1C1_0.Stallreqto_in::total          560                      
system.ruby.Directory_Controller.M_PutML1C1_0.Stallreqto_in |           2    100.00%    100.00% |           0      0.00%    100.00% |           0      0.00%    100.00% |           0      0.00%    100.00%
system.ruby.Directory_Controller.M_PutML1C1_0.Stallreqto_in::total            2                      
system.ruby.Directory_Controller.Progress |        3767     33.10%     33.10% |        2319     20.38%     53.48% |        2571     22.59%     76.08% |        2722     23.92%    100.00%
system.ruby.Directory_Controller.Progress::total        11379                      
system.ruby.Directory_Controller.S.allocTBE |     2461636     25.77%     25.77% |     2320468     24.29%     50.06% |     2472784     25.89%     75.95% |     2297023     24.05%    100.00%
system.ruby.Directory_Controller.S.allocTBE::total      9551911                      
system.ruby.Directory_Controller.S.deallocTBE |     2462453     25.77%     25.77% |     2321300     24.29%     50.06% |     2473573     25.89%     75.95% |     2297855     24.05%    100.00%
system.ruby.Directory_Controller.S.deallocTBE::total      9555181                      
system.ruby.Directory_Controller.S_GetML1C1_1.Stallreqto_in |           2    100.00%    100.00% |           0      0.00%    100.00% |           0      0.00%    100.00% |           0      0.00%    100.00%
system.ruby.Directory_Controller.S_GetML1C1_1.Stallreqto_in::total            2                      
system.ruby.Directory_Controller.S_GetSL1C1_0.Stallreqto_in |        1559     46.44%     46.44% |         245      7.30%     53.74% |        1375     40.96%     94.70% |         178      5.30%    100.00%
system.ruby.Directory_Controller.S_GetSL1C1_0.Stallreqto_in::total         3357                      
system.ruby.Directory_Controller.Stallreqto_in |        2623     45.58%     45.58% |         620     10.77%     56.35% |        2168     37.67%     94.02% |         344      5.98%    100.00%
system.ruby.Directory_Controller.Stallreqto_in::total         5755                      
system.ruby.Directory_Controller.allocTBE |     7099368     25.21%     25.21% |     6978250     24.78%     49.98% |     7146656     25.37%     75.36% |     6941417     24.64%    100.00%
system.ruby.Directory_Controller.allocTBE::total     28165691                      
system.ruby.Directory_Controller.deallocTBE |     7099368     25.21%     25.21% |     6978250     24.78%     49.98% |     7146656     25.37%     75.36% |     6941417     24.64%    100.00%
system.ruby.Directory_Controller.deallocTBE::total     28165691                      
system.ruby.IFETCH.hit_latency_hist_seqr::bucket_size            1                      
system.ruby.IFETCH.hit_latency_hist_seqr::max_bucket            9                      
system.ruby.IFETCH.hit_latency_hist_seqr::samples   2624048281                      
system.ruby.IFETCH.hit_latency_hist_seqr |  2624048281    100.00%    100.00% |           0      0.00%    100.00% |           0      0.00%    100.00% |           0      0.00%    100.00% |           0      0.00%    100.00% |           0      0.00%    100.00% |           0      0.00%    100.00% |           0      0.00%    100.00% |           0      0.00%    100.00% |           0      0.00%    100.00%
system.ruby.IFETCH.hit_latency_hist_seqr::total   2624048281                      
system.ruby.IFETCH.latency_hist_seqr::bucket_size            1                      
system.ruby.IFETCH.latency_hist_seqr::max_bucket            9                      
system.ruby.IFETCH.latency_hist_seqr::samples   2626271647                      
system.ruby.IFETCH.latency_hist_seqr     |  2626271647    100.00%    100.00% |           0      0.00%    100.00% |           0      0.00%    100.00% |           0      0.00%    100.00% |           0      0.00%    100.00% |           0      0.00%    100.00% |           0      0.00%    100.00% |           0      0.00%    100.00% |           0      0.00%    100.00% |           0      0.00%    100.00%
system.ruby.IFETCH.latency_hist_seqr::total   2626271647                      
system.ruby.IFETCH.miss_latency_hist_seqr::bucket_size            1                      
system.ruby.IFETCH.miss_latency_hist_seqr::max_bucket            9                      
system.ruby.IFETCH.miss_latency_hist_seqr::samples      2223366                      
system.ruby.IFETCH.miss_latency_hist_seqr |     2223366    100.00%    100.00% |           0      0.00%    100.00% |           0      0.00%    100.00% |           0      0.00%    100.00% |           0      0.00%    100.00% |           0      0.00%    100.00% |           0      0.00%    100.00% |           0      0.00%    100.00% |           0      0.00%    100.00% |           0      0.00%    100.00%
system.ruby.IFETCH.miss_latency_hist_seqr::total      2223366                      
system.ruby.L1Cache_Controller.I.allocI_load |     1899388     24.24%     24.24% |     1957705     24.99%     49.23% |     2135159     27.25%     76.48% |     1843047     23.52%    100.00%
system.ruby.L1Cache_Controller.I.allocI_load::total      7835299                      
system.ruby.L1Cache_Controller.I.allocI_store |     1219271     21.42%     21.42% |     1381074     24.27%     45.69% |     1350902     23.74%     69.43% |     1739801     30.57%    100.00%
system.ruby.L1Cache_Controller.I.allocI_store::total      5691048                      
system.ruby.L1Cache_Controller.I.deallocnet0from_in |     1503803     22.13%     22.13% |     1614322     23.76%     45.89% |     1643197     24.18%     70.07% |     2033954     29.93%    100.00%
system.ruby.L1Cache_Controller.I.deallocnet0from_in::total      6795276                      
system.ruby.L1Cache_Controller.I.deallocnet2from_in |     1613838     23.99%     23.99% |     1723495     25.62%     49.61% |     1841870     27.38%     76.99% |     1547870     23.01%    100.00%
system.ruby.L1Cache_Controller.I.deallocnet2from_in::total      6727073                      
system.ruby.L1Cache_Controller.I_store.Progress |           1     25.00%     25.00% |           0      0.00%     25.00% |           3     75.00%    100.00% |           0      0.00%    100.00%
system.ruby.L1Cache_Controller.I_store.Progress::total            4                      
system.ruby.L1Cache_Controller.I_store.Stallnet0from_in |           1     14.29%     14.29% |           3     42.86%     57.14% |           1     14.29%     71.43% |           2     28.57%    100.00%
system.ruby.L1Cache_Controller.I_store.Stallnet0from_in::total            7                      
system.ruby.L1Cache_Controller.I_store_GetM_Ack_AD.Progress |        4018     90.45%     90.45% |         154      3.47%     93.92% |         137      3.08%     97.01% |         133      2.99%    100.00%
system.ruby.L1Cache_Controller.I_store_GetM_Ack_AD.Progress::total         4442                      
system.ruby.L1Cache_Controller.M.MloadMEvent |    92785707     25.36%     25.36% |    86395089     23.61%     48.98% |    87790014     24.00%     72.97% |    98889782     27.03%    100.00%
system.ruby.L1Cache_Controller.M.MloadMEvent::total    365860592                      
system.ruby.L1Cache_Controller.M.MstoreMEvent |    27399630     23.33%     23.33% |    28697740     24.44%     47.77% |    28283310     24.09%     71.86% |    33047060     28.14%    100.00%
system.ruby.L1Cache_Controller.M.MstoreMEvent::total    117427740                      
system.ruby.L1Cache_Controller.M.allocTBE |     1509909     22.18%     22.18% |     1615864     23.74%     45.92% |     1644923     24.17%     70.09% |     2035802     29.91%    100.00%
system.ruby.L1Cache_Controller.M.allocTBE::total      6806498                      
system.ruby.L1Cache_Controller.M.externalstoreMnet1from_in |     1501708     22.11%     22.11% |     1613903     23.76%     45.86% |     1642949     24.19%     70.05% |     2034520     29.95%    100.00%
system.ruby.L1Cache_Controller.M.externalstoreMnet1from_in::total      6793080                      
system.ruby.L1Cache_Controller.M.externalstoreMrespfrom_in |        8340     59.75%     59.75% |        2067     14.81%     74.56% |        2094     15.00%     89.57% |        1456     10.43%    100.00%
system.ruby.L1Cache_Controller.M.externalstoreMrespfrom_in::total        13957                      
system.ruby.L1Cache_Controller.M_evict.Stallmandatory_in |         410     22.14%     22.14% |         442     23.87%     46.00% |         461     24.89%     70.90% |         539     29.10%    100.00%
system.ruby.L1Cache_Controller.M_evict.Stallmandatory_in::total         1852                      
system.ruby.L1Cache_Controller.MloadMEvent |    92785707     25.36%     25.36% |    86395089     23.61%     48.98% |    87790014     24.00%     72.97% |    98889782     27.03%    100.00%
system.ruby.L1Cache_Controller.MloadMEvent::total    365860592                      
system.ruby.L1Cache_Controller.MstoreMEvent |    27399630     23.33%     23.33% |    28697740     24.44%     47.77% |    28283310     24.09%     71.86% |    33047060     28.14%    100.00%
system.ruby.L1Cache_Controller.MstoreMEvent::total    117427740                      
system.ruby.L1Cache_Controller.Progress  |      304089     26.82%     26.82% |      236601     20.87%     47.68% |      295876     26.09%     73.78% |      297354     26.22%    100.00%
system.ruby.L1Cache_Controller.Progress::total      1133920                      
system.ruby.L1Cache_Controller.S.SloadSEvent |   673567613     24.06%     24.06% |   626382615     22.37%     46.43% |   682061862     24.36%     70.79% |   817973287     29.21%    100.00%
system.ruby.L1Cache_Controller.S.SloadSEvent::total   2799985377                      
system.ruby.L1Cache_Controller.S.allocTBE |     1904615     24.28%     24.28% |     1958390     24.97%     49.25% |     2136011     27.23%     76.49% |     1844045     23.51%    100.00%
system.ruby.L1Cache_Controller.S.allocTBE::total      7843061                      
system.ruby.L1Cache_Controller.S.deallocTBE |        6106     54.42%     54.42% |        1541     13.73%     68.15% |        1726     15.38%     83.53% |        1848     16.47%    100.00%
system.ruby.L1Cache_Controller.S.deallocTBE::total        11221                      
system.ruby.L1Cache_Controller.S.externalloadSnet0from_in |     1897445     24.25%     24.25% |     1955708     25.00%     49.25% |     2133067     27.26%     76.51% |     1837730     23.49%    100.00%
system.ruby.L1Cache_Controller.S.externalloadSnet0from_in::total      7823950                      
system.ruby.L1Cache_Controller.S.externalloadSrespfrom_in |        1943     17.12%     17.12% |        1997     17.60%     34.72% |        2092     18.43%     53.15% |        5317     46.85%    100.00%
system.ruby.L1Cache_Controller.S.externalloadSrespfrom_in::total        11349                      
system.ruby.L1Cache_Controller.S_evict.Progress |           0      0.00%      0.00% |           1    100.00%    100.00% |           0      0.00%    100.00% |           0      0.00%    100.00%
system.ruby.L1Cache_Controller.S_evict.Progress::total            1                      
system.ruby.L1Cache_Controller.S_evict.Stallmandatory_in |         239     21.65%     21.65% |         252     22.83%     44.47% |         333     30.16%     74.64% |         280     25.36%    100.00%
system.ruby.L1Cache_Controller.S_evict.Stallmandatory_in::total         1104                      
system.ruby.L1Cache_Controller.S_store.Progress |      290782     26.06%     26.06% |      234896     21.05%     47.10% |      294141     26.36%     73.46% |      296176     26.54%    100.00%
system.ruby.L1Cache_Controller.S_store.Progress::total      1115995                      
system.ruby.L1Cache_Controller.S_store.Stallnet0from_in |           6    100.00%    100.00% |           0      0.00%    100.00% |           0      0.00%    100.00% |           0      0.00%    100.00%
system.ruby.L1Cache_Controller.S_store.Stallnet0from_in::total            6                      
system.ruby.L1Cache_Controller.S_store_GetM_Ack_AD.Progress |        9288     68.91%     68.91% |        1550     11.50%     80.41% |        1595     11.83%     92.25% |        1045      7.75%    100.00%
system.ruby.L1Cache_Controller.S_store_GetM_Ack_AD.Progress::total        13478                      
system.ruby.L1Cache_Controller.S_store_GetM_Ack_AD.Stallnet0from_in |          78     34.51%     34.51% |          75     33.19%     67.70% |          57     25.22%     92.92% |          16      7.08%    100.00%
system.ruby.L1Cache_Controller.S_store_GetM_Ack_AD.Stallnet0from_in::total          226                      
system.ruby.L1Cache_Controller.SloadSEvent |   673567613     24.06%     24.06% |   626382615     22.37%     46.43% |   682061862     24.36%     70.79% |   817973287     29.21%    100.00%
system.ruby.L1Cache_Controller.SloadSEvent::total   2799985377                      
system.ruby.L1Cache_Controller.Stallmandatory_in |         649     21.96%     21.96% |         694     23.48%     45.43% |         794     26.86%     72.29% |         819     27.71%    100.00%
system.ruby.L1Cache_Controller.Stallmandatory_in::total         2956                      
system.ruby.L1Cache_Controller.Stallnet0from_in |          85     35.56%     35.56% |          78     32.64%     68.20% |          58     24.27%     92.47% |          18      7.53%    100.00%
system.ruby.L1Cache_Controller.Stallnet0from_in::total          239                      
system.ruby.L1Cache_Controller.allocI_load |     1899388     24.24%     24.24% |     1957705     24.99%     49.23% |     2135159     27.25%     76.48% |     1843047     23.52%    100.00%
system.ruby.L1Cache_Controller.allocI_load::total      7835299                      
system.ruby.L1Cache_Controller.allocI_store |     1219271     21.42%     21.42% |     1381074     24.27%     45.69% |     1350902     23.74%     69.43% |     1739801     30.57%    100.00%
system.ruby.L1Cache_Controller.allocI_store::total      5691048                      
system.ruby.L1Cache_Controller.allocTBE  |     3414524     23.31%     23.31% |     3574254     24.40%     47.71% |     3780934     25.81%     73.52% |     3879847     26.48%    100.00%
system.ruby.L1Cache_Controller.allocTBE::total     14649559                      
system.ruby.L1Cache_Controller.deallocTBE |        6106     54.42%     54.42% |        1541     13.73%     68.15% |        1726     15.38%     83.53% |        1848     16.47%    100.00%
system.ruby.L1Cache_Controller.deallocTBE::total        11221                      
system.ruby.L1Cache_Controller.deallocnet0from_in |     1503803     22.13%     22.13% |     1614322     23.76%     45.89% |     1643197     24.18%     70.07% |     2033954     29.93%    100.00%
system.ruby.L1Cache_Controller.deallocnet0from_in::total      6795276                      
system.ruby.L1Cache_Controller.deallocnet2from_in |     1613838     23.99%     23.99% |     1723495     25.62%     49.61% |     1841870     27.38%     76.99% |     1547870     23.01%    100.00%
system.ruby.L1Cache_Controller.deallocnet2from_in::total      6727073                      
system.ruby.L1Cache_Controller.externalloadSnet0from_in |     1897445     24.25%     24.25% |     1955708     25.00%     49.25% |     2133067     27.26%     76.51% |     1837730     23.49%    100.00%
system.ruby.L1Cache_Controller.externalloadSnet0from_in::total      7823950                      
system.ruby.L1Cache_Controller.externalloadSrespfrom_in |        1943     17.12%     17.12% |        1997     17.60%     34.72% |        2092     18.43%     53.15% |        5317     46.85%    100.00%
system.ruby.L1Cache_Controller.externalloadSrespfrom_in::total        11349                      
system.ruby.L1Cache_Controller.externalstoreMnet1from_in |     1501708     22.11%     22.11% |     1613903     23.76%     45.86% |     1642949     24.19%     70.05% |     2034520     29.95%    100.00%
system.ruby.L1Cache_Controller.externalstoreMnet1from_in::total      6793080                      
system.ruby.L1Cache_Controller.externalstoreMrespfrom_in |        8340     59.75%     59.75% |        2067     14.81%     74.56% |        2094     15.00%     89.57% |        1456     10.43%    100.00%
system.ruby.L1Cache_Controller.externalstoreMrespfrom_in::total        13957                      
system.ruby.LD.hit_latency_hist_seqr::bucket_size            1                      
system.ruby.LD.hit_latency_hist_seqr::max_bucket            9                      
system.ruby.LD.hit_latency_hist_seqr::samples    541797688                      
system.ruby.LD.hit_latency_hist_seqr     |   541797688    100.00%    100.00% |           0      0.00%    100.00% |           0      0.00%    100.00% |           0      0.00%    100.00% |           0      0.00%    100.00% |           0      0.00%    100.00% |           0      0.00%    100.00% |           0      0.00%    100.00% |           0      0.00%    100.00% |           0      0.00%    100.00%
system.ruby.LD.hit_latency_hist_seqr::total    541797688                      
system.ruby.LD.latency_hist_seqr::bucket_size            1                      
system.ruby.LD.latency_hist_seqr::max_bucket            9                      
system.ruby.LD.latency_hist_seqr::samples    547409621                      
system.ruby.LD.latency_hist_seqr         |   547409621    100.00%    100.00% |           0      0.00%    100.00% |           0      0.00%    100.00% |           0      0.00%    100.00% |           0      0.00%    100.00% |           0      0.00%    100.00% |           0      0.00%    100.00% |           0      0.00%    100.00% |           0      0.00%    100.00% |           0      0.00%    100.00%
system.ruby.LD.latency_hist_seqr::total     547409621                      
system.ruby.LD.miss_latency_hist_seqr::bucket_size            1                      
system.ruby.LD.miss_latency_hist_seqr::max_bucket            9                      
system.ruby.LD.miss_latency_hist_seqr::samples      5611933                      
system.ruby.LD.miss_latency_hist_seqr    |     5611933    100.00%    100.00% |           0      0.00%    100.00% |           0      0.00%    100.00% |           0      0.00%    100.00% |           0      0.00%    100.00% |           0      0.00%    100.00% |           0      0.00%    100.00% |           0      0.00%    100.00% |           0      0.00%    100.00% |           0      0.00%    100.00%
system.ruby.LD.miss_latency_hist_seqr::total      5611933                      
system.ruby.Locked_RMW_Read.hit_latency_hist_seqr::bucket_size            1                      
system.ruby.Locked_RMW_Read.hit_latency_hist_seqr::max_bucket            9                      
system.ruby.Locked_RMW_Read.hit_latency_hist_seqr::samples        87612                      
system.ruby.Locked_RMW_Read.hit_latency_hist_seqr |       87612    100.00%    100.00% |           0      0.00%    100.00% |           0      0.00%    100.00% |           0      0.00%    100.00% |           0      0.00%    100.00% |           0      0.00%    100.00% |           0      0.00%    100.00% |           0      0.00%    100.00% |           0      0.00%    100.00% |           0      0.00%    100.00%
system.ruby.Locked_RMW_Read.hit_latency_hist_seqr::total        87612                      
system.ruby.Locked_RMW_Read.latency_hist_seqr::bucket_size            1                      
system.ruby.Locked_RMW_Read.latency_hist_seqr::max_bucket            9                      
system.ruby.Locked_RMW_Read.latency_hist_seqr::samples       119726                      
system.ruby.Locked_RMW_Read.latency_hist_seqr |      119726    100.00%    100.00% |           0      0.00%    100.00% |           0      0.00%    100.00% |           0      0.00%    100.00% |           0      0.00%    100.00% |           0      0.00%    100.00% |           0      0.00%    100.00% |           0      0.00%    100.00% |           0      0.00%    100.00% |           0      0.00%    100.00%
system.ruby.Locked_RMW_Read.latency_hist_seqr::total       119726                      
system.ruby.Locked_RMW_Read.miss_latency_hist_seqr::bucket_size            1                      
system.ruby.Locked_RMW_Read.miss_latency_hist_seqr::max_bucket            9                      
system.ruby.Locked_RMW_Read.miss_latency_hist_seqr::samples        32114                      
system.ruby.Locked_RMW_Read.miss_latency_hist_seqr |       32114    100.00%    100.00% |           0      0.00%    100.00% |           0      0.00%    100.00% |           0      0.00%    100.00% |           0      0.00%    100.00% |           0      0.00%    100.00% |           0      0.00%    100.00% |           0      0.00%    100.00% |           0      0.00%    100.00% |           0      0.00%    100.00%
system.ruby.Locked_RMW_Read.miss_latency_hist_seqr::total        32114                      
system.ruby.Locked_RMW_Write.hit_latency_hist_seqr::bucket_size            1                      
system.ruby.Locked_RMW_Write.hit_latency_hist_seqr::max_bucket            9                      
system.ruby.Locked_RMW_Write.hit_latency_hist_seqr::samples       119726                      
system.ruby.Locked_RMW_Write.hit_latency_hist_seqr |      119726    100.00%    100.00% |           0      0.00%    100.00% |           0      0.00%    100.00% |           0      0.00%    100.00% |           0      0.00%    100.00% |           0      0.00%    100.00% |           0      0.00%    100.00% |           0      0.00%    100.00% |           0      0.00%    100.00% |           0      0.00%    100.00%
system.ruby.Locked_RMW_Write.hit_latency_hist_seqr::total       119726                      
system.ruby.Locked_RMW_Write.latency_hist_seqr::bucket_size            1                      
system.ruby.Locked_RMW_Write.latency_hist_seqr::max_bucket            9                      
system.ruby.Locked_RMW_Write.latency_hist_seqr::samples       119726                      
system.ruby.Locked_RMW_Write.latency_hist_seqr |      119726    100.00%    100.00% |           0      0.00%    100.00% |           0      0.00%    100.00% |           0      0.00%    100.00% |           0      0.00%    100.00% |           0      0.00%    100.00% |           0      0.00%    100.00% |           0      0.00%    100.00% |           0      0.00%    100.00% |           0      0.00%    100.00%
system.ruby.Locked_RMW_Write.latency_hist_seqr::total       119726                      
system.ruby.RMW_Read.hit_latency_hist_seqr::bucket_size            1                      
system.ruby.RMW_Read.hit_latency_hist_seqr::max_bucket            9                      
system.ruby.RMW_Read.hit_latency_hist_seqr::samples      2721821                      
system.ruby.RMW_Read.hit_latency_hist_seqr |     2721821    100.00%    100.00% |           0      0.00%    100.00% |           0      0.00%    100.00% |           0      0.00%    100.00% |           0      0.00%    100.00% |           0      0.00%    100.00% |           0      0.00%    100.00% |           0      0.00%    100.00% |           0      0.00%    100.00% |           0      0.00%    100.00%
system.ruby.RMW_Read.hit_latency_hist_seqr::total      2721821                      
system.ruby.RMW_Read.latency_hist_seqr::bucket_size            1                      
system.ruby.RMW_Read.latency_hist_seqr::max_bucket            9                      
system.ruby.RMW_Read.latency_hist_seqr::samples      2782567                      
system.ruby.RMW_Read.latency_hist_seqr   |     2782567    100.00%    100.00% |           0      0.00%    100.00% |           0      0.00%    100.00% |           0      0.00%    100.00% |           0      0.00%    100.00% |           0      0.00%    100.00% |           0      0.00%    100.00% |           0      0.00%    100.00% |           0      0.00%    100.00% |           0      0.00%    100.00%
system.ruby.RMW_Read.latency_hist_seqr::total      2782567                      
system.ruby.RMW_Read.miss_latency_hist_seqr::bucket_size            1                      
system.ruby.RMW_Read.miss_latency_hist_seqr::max_bucket            9                      
system.ruby.RMW_Read.miss_latency_hist_seqr::samples        60746                      
system.ruby.RMW_Read.miss_latency_hist_seqr |       60746    100.00%    100.00% |           0      0.00%    100.00% |           0      0.00%    100.00% |           0      0.00%    100.00% |           0      0.00%    100.00% |           0      0.00%    100.00% |           0      0.00%    100.00% |           0      0.00%    100.00% |           0      0.00%    100.00% |           0      0.00%    100.00%
system.ruby.RMW_Read.miss_latency_hist_seqr::total        60746                      
system.ruby.ST.hit_latency_hist_seqr::bucket_size            1                      
system.ruby.ST.hit_latency_hist_seqr::max_bucket            9                      
system.ruby.ST.hit_latency_hist_seqr::samples    114498581                      
system.ruby.ST.hit_latency_hist_seqr     |   114498581    100.00%    100.00% |           0      0.00%    100.00% |           0      0.00%    100.00% |           0      0.00%    100.00% |           0      0.00%    100.00% |           0      0.00%    100.00% |           0      0.00%    100.00% |           0      0.00%    100.00% |           0      0.00%    100.00% |           0      0.00%    100.00%
system.ruby.ST.hit_latency_hist_seqr::total    114498581                      
system.ruby.ST.latency_hist_seqr::bucket_size            1                      
system.ruby.ST.latency_hist_seqr::max_bucket            9                      
system.ruby.ST.latency_hist_seqr::samples    121212758                      
system.ruby.ST.latency_hist_seqr         |   121212758    100.00%    100.00% |           0      0.00%    100.00% |           0      0.00%    100.00% |           0      0.00%    100.00% |           0      0.00%    100.00% |           0      0.00%    100.00% |           0      0.00%    100.00% |           0      0.00%    100.00% |           0      0.00%    100.00% |           0      0.00%    100.00%
system.ruby.ST.latency_hist_seqr::total     121212758                      
system.ruby.ST.miss_latency_hist_seqr::bucket_size            1                      
system.ruby.ST.miss_latency_hist_seqr::max_bucket            9                      
system.ruby.ST.miss_latency_hist_seqr::samples      6714177                      
system.ruby.ST.miss_latency_hist_seqr    |     6714177    100.00%    100.00% |           0      0.00%    100.00% |           0      0.00%    100.00% |           0      0.00%    100.00% |           0      0.00%    100.00% |           0      0.00%    100.00% |           0      0.00%    100.00% |           0      0.00%    100.00% |           0      0.00%    100.00% |           0      0.00%    100.00%
system.ruby.ST.miss_latency_hist_seqr::total      6714177                      
system.ruby.dir_cntrl0.net0From.avg_buf_msgs     0.008972                       # Average number of messages in buffer
system.ruby.dir_cntrl0.net0From.avg_stall_time  3000.722446                       # Average number of cycles messages are stalled in this MB
system.ruby.dir_cntrl0.net1From.avg_buf_msgs     0.004106                       # Average number of messages in buffer
system.ruby.dir_cntrl0.net1From.avg_stall_time  3001.088865                       # Average number of cycles messages are stalled in this MB
system.ruby.dir_cntrl0.net2From.avg_buf_msgs     0.004207                       # Average number of messages in buffer
system.ruby.dir_cntrl0.net2From.avg_stall_time  2999.976462                       # Average number of cycles messages are stalled in this MB
system.ruby.dir_cntrl0.reqTo.avg_buf_msgs     0.002886                       # Average number of messages in buffer
system.ruby.dir_cntrl0.reqTo.avg_stall_time  5135.478272                       # Average number of cycles messages are stalled in this MB
system.ruby.dir_cntrl0.requestToMemory.avg_buf_msgs     0.002175                       # Average number of messages in buffer
system.ruby.dir_cntrl0.requestToMemory.avg_stall_time   499.999998                       # Average number of cycles messages are stalled in this MB
system.ruby.dir_cntrl0.respTo.avg_buf_msgs     0.000002                       # Average number of messages in buffer
system.ruby.dir_cntrl0.respTo.avg_stall_time 13784.070866                       # Average number of cycles messages are stalled in this MB
system.ruby.dir_cntrl0.responseFromMemory.avg_buf_msgs     0.002179                       # Average number of messages in buffer
system.ruby.dir_cntrl0.responseFromMemory.avg_stall_time   499.999964                       # Average number of cycles messages are stalled in this MB
system.ruby.dir_cntrl1.net0From.avg_buf_msgs     0.008836                       # Average number of messages in buffer
system.ruby.dir_cntrl1.net0From.avg_stall_time  3000.726812                       # Average number of cycles messages are stalled in this MB
system.ruby.dir_cntrl1.net1From.avg_buf_msgs     0.004154                       # Average number of messages in buffer
system.ruby.dir_cntrl1.net1From.avg_stall_time  3001.326862                       # Average number of cycles messages are stalled in this MB
system.ruby.dir_cntrl1.net2From.avg_buf_msgs     0.003999                       # Average number of messages in buffer
system.ruby.dir_cntrl1.net2From.avg_stall_time  2999.963648                       # Average number of cycles messages are stalled in this MB
system.ruby.dir_cntrl1.reqTo.avg_buf_msgs     0.002829                       # Average number of messages in buffer
system.ruby.dir_cntrl1.reqTo.avg_stall_time  4976.938439                       # Average number of cycles messages are stalled in this MB
system.ruby.dir_cntrl1.requestToMemory.avg_buf_msgs     0.002161                       # Average number of messages in buffer
system.ruby.dir_cntrl1.requestToMemory.avg_stall_time   499.999955                       # Average number of cycles messages are stalled in this MB
system.ruby.dir_cntrl1.respTo.avg_buf_msgs     0.000001                       # Average number of messages in buffer
system.ruby.dir_cntrl1.respTo.avg_stall_time 14540.733699                       # Average number of cycles messages are stalled in this MB
system.ruby.dir_cntrl1.responseFromMemory.avg_buf_msgs     0.002164                       # Average number of messages in buffer
system.ruby.dir_cntrl1.responseFromMemory.avg_stall_time   499.999921                       # Average number of cycles messages are stalled in this MB
system.ruby.dir_cntrl2.net0From.avg_buf_msgs     0.009063                       # Average number of messages in buffer
system.ruby.dir_cntrl2.net0From.avg_stall_time  3001.373617                       # Average number of cycles messages are stalled in this MB
system.ruby.dir_cntrl2.net1From.avg_buf_msgs     0.004178                       # Average number of messages in buffer
system.ruby.dir_cntrl2.net1From.avg_stall_time  3002.910638                       # Average number of cycles messages are stalled in this MB
system.ruby.dir_cntrl2.net2From.avg_buf_msgs     0.004199                       # Average number of messages in buffer
system.ruby.dir_cntrl2.net2From.avg_stall_time  2999.945377                       # Average number of cycles messages are stalled in this MB
system.ruby.dir_cntrl2.reqTo.avg_buf_msgs     0.002903                       # Average number of messages in buffer
system.ruby.dir_cntrl2.reqTo.avg_stall_time  4838.033639                       # Average number of cycles messages are stalled in this MB
system.ruby.dir_cntrl2.requestToMemory.avg_buf_msgs     0.002196                       # Average number of messages in buffer
system.ruby.dir_cntrl2.requestToMemory.avg_stall_time   499.999955                       # Average number of cycles messages are stalled in this MB
system.ruby.dir_cntrl2.respTo.avg_buf_msgs     0.000001                       # Average number of messages in buffer
system.ruby.dir_cntrl2.respTo.avg_stall_time 14498.416711                       # Average number of cycles messages are stalled in this MB
system.ruby.dir_cntrl2.responseFromMemory.avg_buf_msgs     0.002199                       # Average number of messages in buffer
system.ruby.dir_cntrl2.responseFromMemory.avg_stall_time   499.999921                       # Average number of cycles messages are stalled in this MB
system.ruby.dir_cntrl3.net0From.avg_buf_msgs     0.008818                       # Average number of messages in buffer
system.ruby.dir_cntrl3.net0From.avg_stall_time  3001.210104                       # Average number of cycles messages are stalled in this MB
system.ruby.dir_cntrl3.net1From.avg_buf_msgs     0.004193                       # Average number of messages in buffer
system.ruby.dir_cntrl3.net1From.avg_stall_time  3003.603596                       # Average number of cycles messages are stalled in this MB
system.ruby.dir_cntrl3.net2From.avg_buf_msgs     0.003937                       # Average number of messages in buffer
system.ruby.dir_cntrl3.net2From.avg_stall_time  2999.944588                       # Average number of cycles messages are stalled in this MB
system.ruby.dir_cntrl3.reqTo.avg_buf_msgs     0.002813                       # Average number of messages in buffer
system.ruby.dir_cntrl3.reqTo.avg_stall_time  4879.295114                       # Average number of cycles messages are stalled in this MB
system.ruby.dir_cntrl3.requestToMemory.avg_buf_msgs     0.002156                       # Average number of messages in buffer
system.ruby.dir_cntrl3.requestToMemory.avg_stall_time   499.999998                       # Average number of cycles messages are stalled in this MB
system.ruby.dir_cntrl3.respTo.avg_buf_msgs     0.000001                       # Average number of messages in buffer
system.ruby.dir_cntrl3.respTo.avg_stall_time 15203.778398                       # Average number of cycles messages are stalled in this MB
system.ruby.dir_cntrl3.responseFromMemory.avg_buf_msgs     0.002159                       # Average number of messages in buffer
system.ruby.dir_cntrl3.responseFromMemory.avg_stall_time   499.999964                       # Average number of cycles messages are stalled in this MB
system.ruby.dma_cntrl0.cache.demand_accesses            0                       # Number of cache demand accesses
system.ruby.dma_cntrl0.cache.demand_hits            0                       # Number of cache demand hits
system.ruby.dma_cntrl0.cache.demand_misses            0                       # Number of cache demand misses
system.ruby.dma_cntrl0.fully_busy_cycles        20979                       # cycles for which number of transistions == max transitions
system.ruby.dma_cntrl0.mandatoryQueue.avg_buf_msgs     0.000530                       # Average number of messages in buffer
system.ruby.dma_cntrl0.mandatoryQueue.avg_stall_time 131118.434921                       # Average number of cycles messages are stalled in this MB
system.ruby.dma_cntrl0.net0From.avg_buf_msgs     0.000004                       # Average number of messages in buffer
system.ruby.dma_cntrl0.net0From.avg_stall_time 35846.709807                       # Average number of cycles messages are stalled in this MB
system.ruby.dma_cntrl0.net1From.avg_buf_msgs     0.000003                       # Average number of messages in buffer
system.ruby.dma_cntrl0.net1From.avg_stall_time 99481.036208                       # Average number of cycles messages are stalled in this MB
system.ruby.dma_cntrl0.net2From.avg_buf_msgs     0.000001                       # Average number of messages in buffer
system.ruby.dma_cntrl0.net2From.avg_stall_time  6326.152480                       # Average number of cycles messages are stalled in this MB
system.ruby.dma_cntrl0.reqTo.avg_buf_msgs     0.000787                       # Average number of messages in buffer
system.ruby.dma_cntrl0.reqTo.avg_stall_time  7423.611122                       # Average number of cycles messages are stalled in this MB
system.ruby.dma_cntrl0.respFrom.avg_buf_msgs     0.000000                       # Average number of messages in buffer
system.ruby.dma_cntrl0.respFrom.avg_stall_time 14260.056671                       # Average number of cycles messages are stalled in this MB
system.ruby.dma_cntrl0.respTo.avg_buf_msgs     0.000000                       # Average number of messages in buffer
system.ruby.dma_cntrl0.respTo.avg_stall_time   862.596734                       # Average number of cycles messages are stalled in this MB
system.ruby.hit_latency_hist_seqr::bucket_size            1                      
system.ruby.hit_latency_hist_seqr::max_bucket            9                      
system.ruby.hit_latency_hist_seqr::samples   3283273709                      
system.ruby.hit_latency_hist_seqr        |  3283273709    100.00%    100.00% |           0      0.00%    100.00% |           0      0.00%    100.00% |           0      0.00%    100.00% |           0      0.00%    100.00% |           0      0.00%    100.00% |           0      0.00%    100.00% |           0      0.00%    100.00% |           0      0.00%    100.00% |           0      0.00%    100.00%
system.ruby.hit_latency_hist_seqr::total   3283273709                      
system.ruby.io_controller.cache.demand_accesses            0                       # Number of cache demand accesses
system.ruby.io_controller.cache.demand_hits            0                       # Number of cache demand hits
system.ruby.io_controller.cache.demand_misses            0                       # Number of cache demand misses
system.ruby.l1_cntrl0.cache.demand_accesses            0                       # Number of cache demand accesses
system.ruby.l1_cntrl0.cache.demand_hits             0                       # Number of cache demand hits
system.ruby.l1_cntrl0.cache.demand_misses            0                       # Number of cache demand misses
system.ruby.l1_cntrl0.fully_busy_cycles             5                       # cycles for which number of transistions == max transitions
system.ruby.l1_cntrl0.mandatoryQueue.avg_buf_msgs     0.361973                       # Average number of messages in buffer
system.ruby.l1_cntrl0.mandatoryQueue.avg_stall_time  2250.682389                       # Average number of cycles messages are stalled in this MB
system.ruby.l1_cntrl0.net0From.avg_buf_msgs     3.620091                       # Average number of messages in buffer
system.ruby.l1_cntrl0.net0From.avg_stall_time 13538.795109                       # Average number of cycles messages are stalled in this MB
system.ruby.l1_cntrl0.net1From.avg_buf_msgs     0.000611                       # Average number of messages in buffer
system.ruby.l1_cntrl0.net1From.avg_stall_time 16574.883396                       # Average number of cycles messages are stalled in this MB
system.ruby.l1_cntrl0.net2From.avg_buf_msgs     0.000654                       # Average number of messages in buffer
system.ruby.l1_cntrl0.net2From.avg_stall_time  6414.503671                       # Average number of cycles messages are stalled in this MB
system.ruby.l1_cntrl0.reqTo.avg_buf_msgs     0.002644                       # Average number of messages in buffer
system.ruby.l1_cntrl0.reqTo.avg_stall_time   500.025302                       # Average number of cycles messages are stalled in this MB
system.ruby.l1_cntrl0.respFrom.avg_buf_msgs     0.000006                       # Average number of messages in buffer
system.ruby.l1_cntrl0.respFrom.avg_stall_time 14237.142878                       # Average number of cycles messages are stalled in this MB
system.ruby.l1_cntrl0.respTo.avg_buf_msgs     0.000008                       # Average number of messages in buffer
system.ruby.l1_cntrl0.respTo.avg_stall_time   933.433518                       # Average number of cycles messages are stalled in this MB
system.ruby.l1_cntrl1.cache.demand_accesses            0                       # Number of cache demand accesses
system.ruby.l1_cntrl1.cache.demand_hits             0                       # Number of cache demand hits
system.ruby.l1_cntrl1.cache.demand_misses            0                       # Number of cache demand misses
system.ruby.l1_cntrl1.fully_busy_cycles             1                       # cycles for which number of transistions == max transitions
system.ruby.l1_cntrl1.mandatoryQueue.avg_buf_msgs     0.343597                       # Average number of messages in buffer
system.ruby.l1_cntrl1.mandatoryQueue.avg_stall_time  2368.457485                       # Average number of cycles messages are stalled in this MB
system.ruby.l1_cntrl1.net0From.avg_buf_msgs     0.001447                       # Average number of messages in buffer
system.ruby.l1_cntrl1.net0From.avg_stall_time 14683.766147                       # Average number of cycles messages are stalled in this MB
system.ruby.l1_cntrl1.net1From.avg_buf_msgs     0.000654                       # Average number of messages in buffer
system.ruby.l1_cntrl1.net1From.avg_stall_time 16485.268331                       # Average number of cycles messages are stalled in this MB
system.ruby.l1_cntrl1.net2From.avg_buf_msgs     0.000698                       # Average number of messages in buffer
system.ruby.l1_cntrl1.net2From.avg_stall_time  6589.088741                       # Average number of cycles messages are stalled in this MB
system.ruby.l1_cntrl1.reqTo.avg_buf_msgs     0.002798                       # Average number of messages in buffer
system.ruby.l1_cntrl1.reqTo.avg_stall_time   499.988476                       # Average number of cycles messages are stalled in this MB
system.ruby.l1_cntrl1.respFrom.avg_buf_msgs     0.000002                       # Average number of messages in buffer
system.ruby.l1_cntrl1.respFrom.avg_stall_time 14283.201724                       # Average number of cycles messages are stalled in this MB
system.ruby.l1_cntrl1.respTo.avg_buf_msgs     0.000004                       # Average number of messages in buffer
system.ruby.l1_cntrl1.respTo.avg_stall_time   525.501401                       # Average number of cycles messages are stalled in this MB
system.ruby.l1_cntrl2.cache.demand_accesses            0                       # Number of cache demand accesses
system.ruby.l1_cntrl2.cache.demand_hits             0                       # Number of cache demand hits
system.ruby.l1_cntrl2.cache.demand_misses            0                       # Number of cache demand misses
system.ruby.l1_cntrl2.fully_busy_cycles             3                       # cycles for which number of transistions == max transitions
system.ruby.l1_cntrl2.mandatoryQueue.avg_buf_msgs     0.368112                       # Average number of messages in buffer
system.ruby.l1_cntrl2.mandatoryQueue.avg_stall_time  2433.725263                       # Average number of cycles messages are stalled in this MB
system.ruby.l1_cntrl2.net0From.avg_buf_msgs     0.001530                       # Average number of messages in buffer
system.ruby.l1_cntrl2.net0From.avg_stall_time 14406.168431                       # Average number of cycles messages are stalled in this MB
system.ruby.l1_cntrl2.net1From.avg_buf_msgs     0.000666                       # Average number of messages in buffer
system.ruby.l1_cntrl2.net1From.avg_stall_time 16589.426435                       # Average number of cycles messages are stalled in this MB
system.ruby.l1_cntrl2.net2From.avg_buf_msgs     0.000746                       # Average number of messages in buffer
system.ruby.l1_cntrl2.net2From.avg_stall_time  6495.412018                       # Average number of cycles messages are stalled in this MB
system.ruby.l1_cntrl2.reqTo.avg_buf_msgs     0.002940                       # Average number of messages in buffer
system.ruby.l1_cntrl2.reqTo.avg_stall_time   499.861789                       # Average number of cycles messages are stalled in this MB
system.ruby.l1_cntrl2.respFrom.avg_buf_msgs     0.000002                       # Average number of messages in buffer
system.ruby.l1_cntrl2.respFrom.avg_stall_time 14188.558564                       # Average number of cycles messages are stalled in this MB
system.ruby.l1_cntrl2.respTo.avg_buf_msgs     0.000005                       # Average number of messages in buffer
system.ruby.l1_cntrl2.respTo.avg_stall_time   536.354814                       # Average number of cycles messages are stalled in this MB
system.ruby.l1_cntrl3.cache.demand_accesses            0                       # Number of cache demand accesses
system.ruby.l1_cntrl3.cache.demand_hits             0                       # Number of cache demand hits
system.ruby.l1_cntrl3.cache.demand_misses            0                       # Number of cache demand misses
system.ruby.l1_cntrl3.fully_busy_cycles             2                       # cycles for which number of transistions == max transitions
system.ruby.l1_cntrl3.mandatoryQueue.avg_buf_msgs     0.433567                       # Average number of messages in buffer
system.ruby.l1_cntrl3.mandatoryQueue.avg_stall_time  2593.004747                       # Average number of cycles messages are stalled in this MB
system.ruby.l1_cntrl3.net0From.avg_buf_msgs     0.001569                       # Average number of messages in buffer
system.ruby.l1_cntrl3.net0From.avg_stall_time 14122.959475                       # Average number of cycles messages are stalled in this MB
system.ruby.l1_cntrl3.net1From.avg_buf_msgs     0.000824                       # Average number of messages in buffer
system.ruby.l1_cntrl3.net1From.avg_stall_time 16537.175684                       # Average number of cycles messages are stalled in this MB
system.ruby.l1_cntrl3.net2From.avg_buf_msgs     0.000627                       # Average number of messages in buffer
system.ruby.l1_cntrl3.net2From.avg_stall_time  6540.016401                       # Average number of cycles messages are stalled in this MB
system.ruby.l1_cntrl3.reqTo.avg_buf_msgs     0.003021                       # Average number of messages in buffer
system.ruby.l1_cntrl3.reqTo.avg_stall_time   500.016325                       # Average number of cycles messages are stalled in this MB
system.ruby.l1_cntrl3.respFrom.avg_buf_msgs     0.000003                       # Average number of messages in buffer
system.ruby.l1_cntrl3.respFrom.avg_stall_time 14920.439488                       # Average number of cycles messages are stalled in this MB
system.ruby.l1_cntrl3.respTo.avg_buf_msgs     0.000004                       # Average number of messages in buffer
system.ruby.l1_cntrl3.respTo.avg_stall_time   570.431405                       # Average number of cycles messages are stalled in this MB
system.ruby.latency_hist_seqr::bucket_size            1                      
system.ruby.latency_hist_seqr::max_bucket            9                      
system.ruby.latency_hist_seqr::samples     3297916045                      
system.ruby.latency_hist_seqr            |  3297916045    100.00%    100.00% |           0      0.00%    100.00% |           0      0.00%    100.00% |           0      0.00%    100.00% |           0      0.00%    100.00% |           0      0.00%    100.00% |           0      0.00%    100.00% |           0      0.00%    100.00% |           0      0.00%    100.00% |           0      0.00%    100.00%
system.ruby.latency_hist_seqr::total       3297916045                      
system.ruby.miss_latency_hist_seqr::bucket_size            1                      
system.ruby.miss_latency_hist_seqr::max_bucket            9                      
system.ruby.miss_latency_hist_seqr::samples     14642336                      
system.ruby.miss_latency_hist_seqr       |    14642336    100.00%    100.00% |           0      0.00%    100.00% |           0      0.00%    100.00% |           0      0.00%    100.00% |           0      0.00%    100.00% |           0      0.00%    100.00% |           0      0.00%    100.00% |           0      0.00%    100.00% |           0      0.00%    100.00% |           0      0.00%    100.00%
system.ruby.miss_latency_hist_seqr::total     14642336                      
system.ruby.network.average_flit_latency    16.668163                      
system.ruby.network.average_flit_network_latency    12.566839                      
system.ruby.network.average_flit_queueing_latency     4.101324                      
system.ruby.network.average_flit_vnet_latency |   13.539792                       |   15.047430                       |    4.990795                       |   15.575053                       |   11.142708                      
system.ruby.network.average_flit_vqueue_latency |    6.029110                       |    6.028436                       |    6.000000                       |    1.269259                       |    1.095800                      
system.ruby.network.average_hops             0.997879                      
system.ruby.network.average_packet_latency    16.170655                      
system.ruby.network.average_packet_network_latency    12.628916                      
system.ruby.network.average_packet_queueing_latency     3.541740                      
system.ruby.network.average_packet_vnet_latency |   15.711999                       |   25.055144                       |    4.990795                       |   25.607066                       |    9.826574                      
system.ruby.network.average_packet_vqueue_latency |    6.018679                       |    6.028436                       |    6.000000                       |    1.269259                       |    1.068760                      
system.ruby.network.avg_link_utilization     0.172798                      
system.ruby.network.avg_vc_load          |    0.041708     24.14%     24.14% |    0.004729      2.74%     26.87% |    0.004656      2.69%     29.57% |    0.004656      2.69%     32.26% |    0.030987     17.93%     50.19% |    0.003485      2.02%     52.21% |    0.003454      2.00%     54.21% |    0.003454      2.00%     56.21% |    0.006112      3.54%     59.75% |    0.000683      0.40%     60.14% |    0.000682      0.39%     60.54% |    0.000682      0.39%     60.93% |    0.000188      0.11%     61.04% |    0.000047      0.03%     61.07% |    0.000024      0.01%     61.08% |    0.000022      0.01%     61.09% |    0.049912     28.88%     89.98% |    0.006106      3.53%     93.51% |    0.005615      3.25%     96.76% |    0.005599      3.24%    100.00%
system.ruby.network.avg_vc_load::total       0.172798                      
system.ruby.network.ext_in_link_utilization    142321708                      
system.ruby.network.ext_out_link_utilization    142321708                      
system.ruby.network.flit_network_latency |   622207339                       |   512503353                       |    33590347                       |     3312736                       |   616920256                      
system.ruby.network.flit_queueing_latency |   277061605                       |   205323680                       |    40382762                       |      269965                       |    60669407                      
system.ruby.network.flits_injected       |    45953979     32.29%     32.29% |    34059195     23.93%     56.22% |     6730460      4.73%     60.95% |      212695      0.15%     61.10% |    55365379     38.90%    100.00%
system.ruby.network.flits_injected::total    142321708                      
system.ruby.network.flits_received       |    45953979     32.29%     32.29% |    34059195     23.93%     56.22% |     6730460      4.73%     60.95% |      212695      0.15%     61.10% |    55365379     38.90%    100.00%
system.ruby.network.flits_received::total    142321708                      
system.ruby.network.int_link_utilization    142019783                      
system.ruby.network.packet_network_latency |   230044386                       |   170671609                       |    33590347                       |     1089299                       |   276772247                      
system.ruby.network.packet_queueing_latency |    88121393                       |    41064736                       |    40382762                       |       53993                       |    30102367                      
system.ruby.network.packets_injected     |    14641319     25.96%     25.96% |     6811839     12.08%     38.04% |     6730460     11.94%     49.98% |       42539      0.08%     50.05% |    28165691     49.95%    100.00%
system.ruby.network.packets_injected::total     56391848                      
system.ruby.network.packets_received     |    14641319     25.96%     25.96% |     6811839     12.08%     38.04% |     6730460     11.94%     49.98% |       42539      0.08%     50.05% |    28165691     49.95%    100.00%
system.ruby.network.packets_received::total     56391848                      
system.ruby.network.routers0.buffer_reads     69337234                      
system.ruby.network.routers0.buffer_writes     69337234                      
system.ruby.network.routers0.crossbar_activity     69337234                      
system.ruby.network.routers0.sw_input_arbiter_activity     69445573                      
system.ruby.network.routers0.sw_output_arbiter_activity     69337234                      
system.ruby.network.routers1.buffer_reads     70349135                      
system.ruby.network.routers1.buffer_writes     70349135                      
system.ruby.network.routers1.crossbar_activity     70349135                      
system.ruby.network.routers1.sw_input_arbiter_activity     70424484                      
system.ruby.network.routers1.sw_output_arbiter_activity     70349135                      
system.ruby.network.routers2.buffer_reads     71755742                      
system.ruby.network.routers2.buffer_writes     71755742                      
system.ruby.network.routers2.crossbar_activity     71755742                      
system.ruby.network.routers2.sw_input_arbiter_activity     71839142                      
system.ruby.network.routers2.sw_output_arbiter_activity     71755742                      
system.ruby.network.routers3.buffer_reads     72899380                      
system.ruby.network.routers3.buffer_writes     72899380                      
system.ruby.network.routers3.crossbar_activity     72899380                      
system.ruby.network.routers3.sw_input_arbiter_activity     72972307                      
system.ruby.network.routers3.sw_output_arbiter_activity     72899380                      
system.ruby.outstanding_req_hist_seqr::bucket_size            1                      
system.ruby.outstanding_req_hist_seqr::max_bucket            9                      
system.ruby.outstanding_req_hist_seqr::samples   3297916045                      
system.ruby.outstanding_req_hist_seqr::mean     1.001171                      
system.ruby.outstanding_req_hist_seqr::gmean     1.000812                      
system.ruby.outstanding_req_hist_seqr::stdev     0.034193                      
system.ruby.outstanding_req_hist_seqr    |           0      0.00%      0.00% |  3294055816     99.88%     99.88% |     3860229      0.12%    100.00% |           0      0.00%    100.00% |           0      0.00%    100.00% |           0      0.00%    100.00% |           0      0.00%    100.00% |           0      0.00%    100.00% |           0      0.00%    100.00% |           0      0.00%    100.00%
system.ruby.outstanding_req_hist_seqr::total   3297916045                      
system.switch_cpus0.Branches                 79400863                       # Number of branches fetched
system.switch_cpus0.committedInsts          445411254                       # Number of instructions committed
system.switch_cpus0.committedOps            780722154                       # Number of ops (including micro ops) committed
system.switch_cpus0.dtb.rdAccesses          136911268                       # TLB accesses on read requests
system.switch_cpus0.dtb.rdMisses               175371                       # TLB misses on read requests
system.switch_cpus0.dtb.wrAccesses           28122227                       # TLB accesses on write requests
system.switch_cpus0.dtb.wrMisses                34188                       # TLB misses on write requests
system.switch_cpus0.idle_fraction            0.195892                       # Percentage of idle cycles
system.switch_cpus0.itb.rdAccesses                  0                       # TLB accesses on read requests
system.switch_cpus0.itb.rdMisses                    0                       # TLB misses on read requests
system.switch_cpus0.itb.wrAccesses          631481542                       # TLB accesses on write requests
system.switch_cpus0.itb.wrMisses                12530                       # TLB misses on write requests
system.switch_cpus0.kern.inst.arm                   0                       # number of arm instructions executed
system.switch_cpus0.kern.inst.quiesce               0                       # number of quiesce instructions executed
system.switch_cpus0.not_idle_fraction        0.804108                       # Percentage of non-idle cycles
system.switch_cpus0.numCycles              2468357398                       # number of cpu cycles simulated
system.switch_cpus0.numWorkItemsCompleted            0                       # number of work items this cpu completed
system.switch_cpus0.numWorkItemsStarted             0                       # number of work items this cpu started
system.switch_cpus0.num_busy_cycles      1984826999.049598                       # Number of busy cycles
system.switch_cpus0.num_cc_register_reads    406782271                       # number of times the CC registers were read
system.switch_cpus0.num_cc_register_writes    227198489                       # number of times the CC registers were written
system.switch_cpus0.num_conditional_control_insts     67356491                       # number of instructions that are conditional controls
system.switch_cpus0.num_fp_alu_accesses     195332187                       # Number of float alu accesses
system.switch_cpus0.num_fp_insts            195332187                       # number of float instructions
system.switch_cpus0.num_fp_register_reads    275346312                       # number of times the floating registers were read
system.switch_cpus0.num_fp_register_writes    165557147                       # number of times the floating registers were written
system.switch_cpus0.num_func_calls            2120238                       # number of times a function call or return occured
system.switch_cpus0.num_idle_cycles      483530398.950402                       # Number of idle cycles
system.switch_cpus0.num_int_alu_accesses    650541015                       # Number of integer alu accesses
system.switch_cpus0.num_int_insts           650541015                       # number of integer instructions
system.switch_cpus0.num_int_register_reads   1340510517                       # number of times the integer registers were read
system.switch_cpus0.num_int_register_writes    491351088                       # number of times the integer registers were written
system.switch_cpus0.num_load_insts          135824254                       # Number of load instructions
system.switch_cpus0.num_mem_refs            163889460                       # number of memory refs
system.switch_cpus0.num_store_insts          28065206                       # Number of store instructions
system.switch_cpus0.num_vec_alu_accesses            0                       # Number of vector alu accesses
system.switch_cpus0.num_vec_insts                   0                       # number of vector instructions
system.switch_cpus0.num_vec_register_reads            0                       # number of times the vector registers were read
system.switch_cpus0.num_vec_register_writes            0                       # number of times the vector registers were written
system.switch_cpus0.op_class::No_OpClass       828881      0.11%      0.11% # Class of executed instruction
system.switch_cpus0.op_class::IntAlu        494789569     63.38%     63.48% # Class of executed instruction
system.switch_cpus0.op_class::IntMult          170391      0.02%     63.50% # Class of executed instruction
[...]
system.mem_ctrls1.llc.tags.warmup_cycle  99424041600500                       # Cycle when the warmup percentage was hit.
system.mem_ctrls1.llc.tags.occ_blocks::.ruby.dir_cntrl1 53117.581039                       # Average occupied blocks per requestor
system.mem_ctrls1.llc.tags.occ_percent::.ruby.dir_cntrl1     0.202627                       # Average percentage of cache occupancy
system.mem_ctrls1.llc.tags.occ_percent::total     0.202627                       # Average percentage of cache occupancy
system.mem_ctrls1.llc.tags.occ_task_id_blocks::1024        59209                       # Occupied blocks per task id
system.mem_ctrls1.llc.tags.age_task_id_blocks_1024::0            5                       # Occupied blocks per task id
system.mem_ctrls1.llc.tags.age_task_id_blocks_1024::1            2                       # Occupied blocks per task id
system.mem_ctrls1.llc.tags.age_task_id_blocks_1024::2           20                       # Occupied blocks per task id
system.mem_ctrls1.llc.tags.age_task_id_blocks_1024::3            1                       # Occupied blocks per task id
system.mem_ctrls1.llc.tags.age_task_id_blocks_1024::4        59181                       # Occupied blocks per task id
system.mem_ctrls1.llc.tags.occ_task_id_percent::1024     0.225864                       # Percentage of cache occupancy per task id
system.mem_ctrls1.llc.tags.tag_accesses      85413529                       # Number of tag accesses
system.mem_ctrls1.llc.tags.data_accesses      5334645                       # Number of data accesses
system.mem_ctrls1.llc.tags.power_state.pwrStateResidencyTicks::UNDEFINED 100658610853001                       # Cumulative time (in ticks) in various power states
system.mem_ctrls1.rank1.actEnergy            65737980                       # Energy for activate commands per rank (pJ)
system.mem_ctrls1.rank1.preEnergy            34932975                       # Energy for precharge commands per rank (pJ)
system.mem_ctrls1.rank1.readEnergy          208766460                       # Energy for read commands per rank (pJ)
system.mem_ctrls1.rank1.writeEnergy                 0                       # Energy for write commands per rank (pJ)
system.mem_ctrls1.rank1.refreshEnergy    97455474480.000015                       # Energy for refresh commands per rank (pJ)
system.mem_ctrls1.rank1.actBackEnergy     32872146240                       # Energy for active background per rank (pJ)
system.mem_ctrls1.rank1.preBackEnergy    446392681440                       # Energy for precharge background per rank (pJ)
system.mem_ctrls1.rank1.actPowerDownEnergy            0                       # Energy for active power-down per rank (pJ)
system.mem_ctrls1.rank1.prePowerDownEnergy            0                       # Energy for precharge power-down per rank (pJ)
system.mem_ctrls1.rank1.selfRefreshEnergy            0                       # Energy for self refresh per rank (pJ)
system.mem_ctrls1.rank1.totalEnergy      577029739575                       # Total energy per rank (pJ)
system.mem_ctrls1.rank1.averagePower       467.393512                       # Core power per rank (mW)
system.mem_ctrls1.rank1.totalIdleTime               0                       # Total Idle time Per DRAM Rank
system.mem_ctrls1.rank1.memoryStateTime::IDLE 1160206096750                       # Time in different power states
system.mem_ctrls1.rank1.memoryStateTime::REF  41224820000                       # Time in different power states
system.mem_ctrls1.rank1.memoryStateTime::SREF            0                       # Time in different power states
system.mem_ctrls1.rank1.memoryStateTime::PRE_PDN            0                       # Time in different power states
system.mem_ctrls1.rank1.memoryStateTime::ACT  33138508751                       # Time in different power states
system.mem_ctrls1.rank1.memoryStateTime::ACT_PDN            0                       # Time in different power states
system.mem_ctrls1.rank0.actEnergy            70714560                       # Energy for activate commands per rank (pJ)
system.mem_ctrls1.rank0.preEnergy            37581885                       # Energy for precharge commands per rank (pJ)
system.mem_ctrls1.rank0.readEnergy          213985800                       # Energy for read commands per rank (pJ)
system.mem_ctrls1.rank0.writeEnergy                 0                       # Energy for write commands per rank (pJ)
system.mem_ctrls1.rank0.refreshEnergy    97455474480.000015                       # Energy for refresh commands per rank (pJ)
system.mem_ctrls1.rank0.actBackEnergy     33751521720                       # Energy for active background per rank (pJ)
system.mem_ctrls1.rank0.preBackEnergy    445652279040                       # Energy for precharge background per rank (pJ)
system.mem_ctrls1.rank0.actPowerDownEnergy            0                       # Energy for active power-down per rank (pJ)
system.mem_ctrls1.rank0.prePowerDownEnergy            0                       # Energy for precharge power-down per rank (pJ)
system.mem_ctrls1.rank0.selfRefreshEnergy            0                       # Energy for self refresh per rank (pJ)
system.mem_ctrls1.rank0.totalEnergy      577181557485                       # Total energy per rank (pJ)
system.mem_ctrls1.rank0.averagePower       467.516484                       # Core power per rank (mW)
system.mem_ctrls1.rank0.totalIdleTime               0                       # Total Idle time Per DRAM Rank
system.mem_ctrls1.rank0.memoryStateTime::IDLE 1158273870250                       # Time in different power states
system.mem_ctrls1.rank0.memoryStateTime::REF  41224820000                       # Time in different power states
system.mem_ctrls1.rank0.memoryStateTime::SREF            0                       # Time in different power states
system.mem_ctrls1.rank0.memoryStateTime::PRE_PDN            0                       # Time in different power states
system.mem_ctrls1.rank0.memoryStateTime::ACT  35070735251                       # Time in different power states
system.mem_ctrls1.rank0.memoryStateTime::ACT_PDN            0                       # Time in different power states
system.mem_ctrls1.power_state.pwrStateResidencyTicks::UNDEFINED 100658610853001                       # Cumulative time (in ticks) in various power states
system.cpu_voltage_domain.voltage                   1                       # Voltage in Volts
system.iobus.trans_dist::ReadReq                 1030                       # Transaction distribution
system.iobus.trans_dist::ReadResp                1030                       # Transaction distribution
system.iobus.trans_dist::WriteReq                7375                       # Transaction distribution
system.iobus.trans_dist::WriteResp               7375                       # Transaction distribution
system.iobus.pkt_count_system.pc.south_bridge.io_apic.int_master::system.ruby.l1_cntrl1.sequencer.pio-slave-port          434                       # Packet count per connected master and slave (bytes)
system.iobus.pkt_count_system.pc.south_bridge.io_apic.int_master::total          434                       # Packet count per connected master and slave (bytes)
system.iobus.pkt_count_system.ruby.l1_cntrl0.sequencer.mem-master-port::system.ruby.l1_cntrl0.sequencer.pio-slave-port         3342                       # Packet count per connected master and slave (bytes)
system.iobus.pkt_count_system.ruby.l1_cntrl0.sequencer.mem-master-port::system.ruby.l1_cntrl1.sequencer.pio-slave-port          138                       # Packet count per connected master and slave (bytes)
system.iobus.pkt_count_system.ruby.l1_cntrl0.sequencer.mem-master-port::system.ruby.l1_cntrl2.sequencer.pio-slave-port          120                       # Packet count per connected master and slave (bytes)
system.iobus.pkt_count_system.ruby.l1_cntrl0.sequencer.mem-master-port::system.ruby.l1_cntrl3.sequencer.pio-slave-port           78                       # Packet count per connected master and slave (bytes)
system.iobus.pkt_count_system.ruby.l1_cntrl0.sequencer.mem-master-port::total         3678                       # Packet count per connected master and slave (bytes)
system.iobus.pkt_count_system.ruby.l1_cntrl1.sequencer.mem-master-port::system.pc.south_bridge.ide.pio          108                       # Packet count per connected master and slave (bytes)
system.iobus.pkt_count_system.ruby.l1_cntrl1.sequencer.mem-master-port::system.pc.com_1.pio         1732                       # Packet count per connected master and slave (bytes)
system.iobus.pkt_count_system.ruby.l1_cntrl1.sequencer.mem-master-port::system.ruby.l1_cntrl0.sequencer.pio-slave-port          114                       # Packet count per connected master and slave (bytes)
system.iobus.pkt_count_system.ruby.l1_cntrl1.sequencer.mem-master-port::system.ruby.l1_cntrl1.sequencer.pio-slave-port         3296                       # Packet count per connected master and slave (bytes)
system.iobus.pkt_count_system.ruby.l1_cntrl1.sequencer.mem-master-port::system.ruby.l1_cntrl2.sequencer.pio-slave-port          102                       # Packet count per connected master and slave (bytes)
system.iobus.pkt_count_system.ruby.l1_cntrl1.sequencer.mem-master-port::system.ruby.l1_cntrl3.sequencer.pio-slave-port           52                       # Packet count per connected master and slave (bytes)
system.iobus.pkt_count_system.ruby.l1_cntrl1.sequencer.mem-master-port::total         5404                       # Packet count per connected master and slave (bytes)
system.iobus.pkt_count_system.ruby.l1_cntrl2.sequencer.mem-master-port::system.pc.south_bridge.ide.pio          170                       # Packet count per connected master and slave (bytes)
system.iobus.pkt_count_system.ruby.l1_cntrl2.sequencer.mem-master-port::system.ruby.l1_cntrl0.sequencer.pio-slave-port          162                       # Packet count per connected master and slave (bytes)
system.iobus.pkt_count_system.ruby.l1_cntrl2.sequencer.mem-master-port::system.ruby.l1_cntrl1.sequencer.pio-slave-port           88                       # Packet count per connected master and slave (bytes)
system.iobus.pkt_count_system.ruby.l1_cntrl2.sequencer.mem-master-port::system.ruby.l1_cntrl2.sequencer.pio-slave-port         3290                       # Packet count per connected master and slave (bytes)
system.iobus.pkt_count_system.ruby.l1_cntrl2.sequencer.mem-master-port::system.ruby.l1_cntrl3.sequencer.pio-slave-port           84                       # Packet count per connected master and slave (bytes)
system.iobus.pkt_count_system.ruby.l1_cntrl2.sequencer.mem-master-port::total         3794                       # Packet count per connected master and slave (bytes)
system.iobus.pkt_count_system.ruby.l1_cntrl3.sequencer.mem-master-port::system.pc.south_bridge.ide.pio          136                       # Packet count per connected master and slave (bytes)
system.iobus.pkt_count_system.ruby.l1_cntrl3.sequencer.mem-master-port::system.ruby.l1_cntrl0.sequencer.pio-slave-port          114                       # Packet count per connected master and slave (bytes)
system.iobus.pkt_count_system.ruby.l1_cntrl3.sequencer.mem-master-port::system.ruby.l1_cntrl1.sequencer.pio-slave-port           30                       # Packet count per connected master and slave (bytes)
system.iobus.pkt_count_system.ruby.l1_cntrl3.sequencer.mem-master-port::system.ruby.l1_cntrl2.sequencer.pio-slave-port           40                       # Packet count per connected master and slave (bytes)
system.iobus.pkt_count_system.ruby.l1_cntrl3.sequencer.mem-master-port::system.ruby.l1_cntrl3.sequencer.pio-slave-port         3180                       # Packet count per connected master and slave (bytes)
system.iobus.pkt_count_system.ruby.l1_cntrl3.sequencer.mem-master-port::total         3500                       # Packet count per connected master and slave (bytes)
system.iobus.pkt_count::total                   16810                       # Packet count per connected master and slave (bytes)
system.iobus.pkt_size_system.pc.south_bridge.io_apic.int_master::system.ruby.l1_cntrl1.sequencer.pio-slave-port          868                       # Cumulative packet size per connected master and slave (bytes)
system.iobus.pkt_size_system.pc.south_bridge.io_apic.int_master::total          868                       # Cumulative packet size per connected master and slave (bytes)
system.iobus.pkt_size_system.ruby.l1_cntrl0.sequencer.mem-master-port::system.ruby.l1_cntrl0.sequencer.pio-slave-port         6684                       # Cumulative packet size per connected master and slave (bytes)
system.iobus.pkt_size_system.ruby.l1_cntrl0.sequencer.mem-master-port::system.ruby.l1_cntrl1.sequencer.pio-slave-port          276                       # Cumulative packet size per connected master and slave (bytes)
system.iobus.pkt_size_system.ruby.l1_cntrl0.sequencer.mem-master-port::system.ruby.l1_cntrl2.sequencer.pio-slave-port          240                       # Cumulative packet size per connected master and slave (bytes)
system.iobus.pkt_size_system.ruby.l1_cntrl0.sequencer.mem-master-port::system.ruby.l1_cntrl3.sequencer.pio-slave-port          156                       # Cumulative packet size per connected master and slave (bytes)
system.iobus.pkt_size_system.ruby.l1_cntrl0.sequencer.mem-master-port::total         7356                       # Cumulative packet size per connected master and slave (bytes)
system.iobus.pkt_size_system.ruby.l1_cntrl1.sequencer.mem-master-port::system.pc.south_bridge.ide.pio           54                       # Cumulative packet size per connected master and slave (bytes)
system.iobus.pkt_size_system.ruby.l1_cntrl1.sequencer.mem-master-port::system.pc.com_1.pio          866                       # Cumulative packet size per connected master and slave (bytes)
system.iobus.pkt_size_system.ruby.l1_cntrl1.sequencer.mem-master-port::system.ruby.l1_cntrl0.sequencer.pio-slave-port          228                       # Cumulative packet size per connected master and slave (bytes)
system.iobus.pkt_size_system.ruby.l1_cntrl1.sequencer.mem-master-port::system.ruby.l1_cntrl1.sequencer.pio-slave-port         6592                       # Cumulative packet size per connected master and slave (bytes)
system.iobus.pkt_size_system.ruby.l1_cntrl1.sequencer.mem-master-port::system.ruby.l1_cntrl2.sequencer.pio-slave-port          204                       # Cumulative packet size per connected master and slave (bytes)
system.iobus.pkt_size_system.ruby.l1_cntrl1.sequencer.mem-master-port::system.ruby.l1_cntrl3.sequencer.pio-slave-port          104                       # Cumulative packet size per connected master and slave (bytes)
system.iobus.pkt_size_system.ruby.l1_cntrl1.sequencer.mem-master-port::total         8048                       # Cumulative packet size per connected master and slave (bytes)
system.iobus.pkt_size_system.ruby.l1_cntrl2.sequencer.mem-master-port::system.pc.south_bridge.ide.pio          100                       # Cumulative packet size per connected master and slave (bytes)
system.iobus.pkt_size_system.ruby.l1_cntrl2.sequencer.mem-master-port::system.ruby.l1_cntrl0.sequencer.pio-slave-port          324                       # Cumulative packet size per connected master and slave (bytes)
system.iobus.pkt_size_system.ruby.l1_cntrl2.sequencer.mem-master-port::system.ruby.l1_cntrl1.sequencer.pio-slave-port          176                       # Cumulative packet size per connected master and slave (bytes)
system.iobus.pkt_size_system.ruby.l1_cntrl2.sequencer.mem-master-port::system.ruby.l1_cntrl2.sequencer.pio-slave-port         6580                       # Cumulative packet size per connected master and slave (bytes)
system.iobus.pkt_size_system.ruby.l1_cntrl2.sequencer.mem-master-port::system.ruby.l1_cntrl3.sequencer.pio-slave-port          168                       # Cumulative packet size per connected master and slave (bytes)
system.iobus.pkt_size_system.ruby.l1_cntrl2.sequencer.mem-master-port::total         7348                       # Cumulative packet size per connected master and slave (bytes)
system.iobus.pkt_size_system.ruby.l1_cntrl3.sequencer.mem-master-port::system.pc.south_bridge.ide.pio           80                       # Cumulative packet size per connected master and slave (bytes)
system.iobus.pkt_size_system.ruby.l1_cntrl3.sequencer.mem-master-port::system.ruby.l1_cntrl0.sequencer.pio-slave-port          228                       # Cumulative packet size per connected master and slave (bytes)
system.iobus.pkt_size_system.ruby.l1_cntrl3.sequencer.mem-master-port::system.ruby.l1_cntrl1.sequencer.pio-slave-port           60                       # Cumulative packet size per connected master and slave (bytes)
system.iobus.pkt_size_system.ruby.l1_cntrl3.sequencer.mem-master-port::system.ruby.l1_cntrl2.sequencer.pio-slave-port           80                       # Cumulative packet size per connected master and slave (bytes)
system.iobus.pkt_size_system.ruby.l1_cntrl3.sequencer.mem-master-port::system.ruby.l1_cntrl3.sequencer.pio-slave-port         6360                       # Cumulative packet size per connected master and slave (bytes)
system.iobus.pkt_size_system.ruby.l1_cntrl3.sequencer.mem-master-port::total         6808                       # Cumulative packet size per connected master and slave (bytes)
system.iobus.pkt_size::total                    30428                       # Cumulative packet size per connected master and slave (bytes)
system.iobus.reqLayer2.occupancy               345000                       # Layer occupancy (ticks)
system.iobus.reqLayer2.utilization                0.0                       # Layer utilization (%)
system.iobus.power_state.pwrStateResidencyTicks::UNDEFINED 100658610853001                       # Cumulative time (in ticks) in various power states
system.iobus.reqLayer19.occupancy             4131209                       # Layer occupancy (ticks)
system.iobus.reqLayer19.utilization               0.0                       # Layer utilization (%)
system.iobus.reqLayer17.occupancy             4374745                       # Layer occupancy (ticks)
system.iobus.reqLayer17.utilization               0.0                       # Layer utilization (%)
system.iobus.reqLayer12.occupancy             1131000                       # Layer occupancy (ticks)
system.iobus.reqLayer12.utilization               0.0                       # Layer utilization (%)
system.iobus.reqLayer18.occupancy             4561822                       # Layer occupancy (ticks)
system.iobus.reqLayer18.utilization               0.0                       # Layer utilization (%)
system.iobus.respLayer9.occupancy             2644000                       # Layer occupancy (ticks)
system.iobus.respLayer9.utilization               0.0                       # Layer utilization (%)
system.iobus.respLayer5.occupancy             4230000                       # Layer occupancy (ticks)
system.iobus.respLayer5.utilization               0.0                       # Layer utilization (%)
system.iobus.respLayer7.occupancy             2828500                       # Layer occupancy (ticks)
system.iobus.respLayer7.utilization               0.0                       # Layer utilization (%)
system.iobus.respLayer0.occupancy              326991                       # Layer occupancy (ticks)
system.iobus.respLayer0.utilization               0.0                       # Layer utilization (%)
system.iobus.respLayer3.occupancy             2750500                       # Layer occupancy (ticks)
system.iobus.respLayer3.utilization               0.0                       # Layer utilization (%)
system.iobus.reqLayer20.occupancy             4035494                       # Layer occupancy (ticks)
system.iobus.reqLayer20.utilization               0.0                       # Layer utilization (%)

---------- End Simulation Statistics   ----------
