
---------- Begin Simulation Statistics ----------
final_tick                               100362914616001                       # Number of ticks from beginning of simulation (restored from checkpoints and never reset)
host_inst_rate                                 665797                       # Simulator instruction rate (inst/s)
host_mem_usage                                2012688                       # Number of bytes of host memory used
host_op_rate                                   785690                       # Simulator op (including micro ops) rate (op/s)
host_seconds                                 10668.83                       # Real time elapsed on the host
host_tick_rate                              150559525                       # Simulator tick rate (ticks/s)
sim_freq                                 1000000000000                       # Frequency of simulated ticks
sim_insts                                  7103272314                       # Number of instructions simulated
sim_ops                                    8382392223                       # Number of ops (including micro ops) simulated
sim_seconds                                  1.606293                       # Number of seconds simulated
sim_ticks                                1606293430001                       # Number of ticks simulated
system.cpu0.committedInsts                          0                       # Number of instructions committed
system.cpu0.dtb.rdAccesses                          0                       # TLB accesses on read requests
system.cpu0.dtb.rdMisses                            0                       # TLB misses on read requests
system.cpu0.dtb.wrAccesses                          0                       # TLB accesses on write requests
system.cpu0.dtb.wrMisses                            0                       # TLB misses on write requests
system.cpu0.itb.rdAccesses                          0                       # TLB accesses on read requests
system.cpu0.itb.rdMisses                            0                       # TLB misses on read requests
system.cpu0.itb.wrAccesses                          0                       # TLB accesses on write requests
system.cpu0.itb.wrMisses                            0                       # TLB misses on write requests
system.cpu0.kern.inst.arm                           0                       # number of arm instructions executed
system.cpu0.kern.inst.quiesce                       0                       # number of quiesce instructions executed
system.cpu0.numCoalescedMMIO                        0                       # number of coalesced memory mapped IO requests
system.cpu0.numCycles                               0                       # number of cpu cycles simulated
system.cpu0.numExitSignal                           0                       # exits due to signal delivery
system.cpu0.numHalt                                 0                       # number of VM exits due to wait for interrupt instructions
system.cpu0.numHypercalls                           0                       # number of hypercalls
system.cpu0.numIO                                   0                       # number of VM exits due to legacy IO
system.cpu0.numInterrupts                           0                       # number of interrupts delivered
system.cpu0.numMMIO                                 0                       # number of VM exits due to memory mapped IO
system.cpu0.numVMExits                              0                       # total number of KVM exits
system.cpu0.numVMHalfEntries                        0                       # number of KVM entries to finalize pending operations
system.cpu0.numWorkItemsCompleted                   0                       # number of work items this cpu completed
system.cpu0.numWorkItemsStarted                     0                       # number of work items this cpu started
system.cpu1.committedInsts                          0                       # Number of instructions committed
system.cpu1.dtb.rdAccesses                          0                       # TLB accesses on read requests
system.cpu1.dtb.rdMisses                            0                       # TLB misses on read requests
system.cpu1.dtb.wrAccesses                          0                       # TLB accesses on write requests
system.cpu1.dtb.wrMisses                            0                       # TLB misses on write requests
system.cpu1.itb.rdAccesses                          0                       # TLB accesses on read requests
system.cpu1.itb.rdMisses                            0                       # TLB misses on read requests
system.cpu1.itb.wrAccesses                          0                       # TLB accesses on write requests
system.cpu1.itb.wrMisses                            0                       # TLB misses on write requests
system.cpu1.kern.inst.arm                           0                       # number of arm instructions executed
system.cpu1.kern.inst.quiesce                       0                       # number of quiesce instructions executed
system.cpu1.numCoalescedMMIO                        0                       # number of coalesced memory mapped IO requests
system.cpu1.numCycles                               0                       # number of cpu cycles simulated
system.cpu1.numExitSignal                           0                       # exits due to signal delivery
system.cpu1.numHalt                                 0                       # number of VM exits due to wait for interrupt instructions
system.cpu1.numHypercalls                           0                       # number of hypercalls
system.cpu1.numIO                                   0                       # number of VM exits due to legacy IO
system.cpu1.numInterrupts                           0                       # number of interrupts delivered
system.cpu1.numMMIO                                 0                       # number of VM exits due to memory mapped IO
system.cpu1.numVMExits                              0                       # total number of KVM exits
system.cpu1.numVMHalfEntries                        0                       # number of KVM entries to finalize pending operations
system.cpu1.numWorkItemsCompleted                   0                       # number of work items this cpu completed
system.cpu1.numWorkItemsStarted                     0                       # number of work items this cpu started
system.cpu2.committedInsts                          0                       # Number of instructions committed
system.cpu2.dtb.rdAccesses                          0                       # TLB accesses on read requests
system.cpu2.dtb.rdMisses                            0                       # TLB misses on read requests
system.cpu2.dtb.wrAccesses                          0                       # TLB accesses on write requests
system.cpu2.dtb.wrMisses                            0                       # TLB misses on write requests
system.cpu2.itb.rdAccesses                          0                       # TLB accesses on read requests
system.cpu2.itb.rdMisses                            0                       # TLB misses on read requests
system.cpu2.itb.wrAccesses                          0                       # TLB accesses on write requests
system.cpu2.itb.wrMisses                            0                       # TLB misses on write requests
system.cpu2.kern.inst.arm                           0                       # number of arm instructions executed
system.cpu2.kern.inst.quiesce                       0                       # number of quiesce instructions executed
system.cpu2.numCoalescedMMIO                        0                       # number of coalesced memory mapped IO requests
system.cpu2.numCycles                               0                       # number of cpu cycles simulated
system.cpu2.numExitSignal                           0                       # exits due to signal delivery
system.cpu2.numHalt                                 0                       # number of VM exits due to wait for interrupt instructions
system.cpu2.numHypercalls                           0                       # number of hypercalls
system.cpu2.numIO                                   0                       # number of VM exits due to legacy IO
system.cpu2.numInterrupts                           0                       # number of interrupts delivered
system.cpu2.numMMIO                                 0                       # number of VM exits due to memory mapped IO
system.cpu2.numVMExits                              0                       # total number of KVM exits
system.cpu2.numVMHalfEntries                        0                       # number of KVM entries to finalize pending operations
system.cpu2.numWorkItemsCompleted                   0                       # number of work items this cpu completed
system.cpu2.numWorkItemsStarted                     0                       # number of work items this cpu started
system.cpu3.committedInsts                          0                       # Number of instructions committed
system.cpu3.dtb.rdAccesses                          0                       # TLB accesses on read requests
system.cpu3.dtb.rdMisses                            0                       # TLB misses on read requests
system.cpu3.dtb.wrAccesses                          0                       # TLB accesses on write requests
system.cpu3.dtb.wrMisses                            0                       # TLB misses on write requests
system.cpu3.itb.rdAccesses                          0                       # TLB accesses on read requests
system.cpu3.itb.rdMisses                            0                       # TLB misses on read requests
system.cpu3.itb.wrAccesses                          0                       # TLB accesses on write requests
system.cpu3.itb.wrMisses                            0                       # TLB misses on write requests
system.cpu3.kern.inst.arm                           0                       # number of arm instructions executed
system.cpu3.kern.inst.quiesce                       0                       # number of quiesce instructions executed
system.cpu3.numCoalescedMMIO                        0                       # number of coalesced memory mapped IO requests
system.cpu3.numCycles                               0                       # number of cpu cycles simulated
system.cpu3.numExitSignal                           0                       # exits due to signal delivery
system.cpu3.numHalt                                 0                       # number of VM exits due to wait for interrupt instructions
system.cpu3.numHypercalls                           0                       # number of hypercalls
system.cpu3.numIO                                   0                       # number of VM exits due to legacy IO
system.cpu3.numInterrupts                           0                       # number of interrupts delivered
system.cpu3.numMMIO                                 0                       # number of VM exits due to memory mapped IO
system.cpu3.numVMExits                              0                       # total number of KVM exits
system.cpu3.numVMHalfEntries                        0                       # number of KVM entries to finalize pending operations
system.cpu3.numWorkItemsCompleted                   0                       # number of work items this cpu completed
system.cpu3.numWorkItemsStarted                     0                       # number of work items this cpu started
system.pc.south_bridge.ide.disks.dma_read_bytes     12353536                       # Number of bytes transfered via DMA reads (not PRD).
system.pc.south_bridge.ide.disks.dma_read_full_pages         3016                       # Number of full page size DMA reads (not PRD).
system.pc.south_bridge.ide.disks.dma_read_txs         3016                       # Number of DMA read transactions (not PRD).
system.pc.south_bridge.ide.disks.dma_write_bytes        73728                       # Number of bytes transfered via DMA writes.
system.pc.south_bridge.ide.disks.dma_write_full_pages           18                       # Number of full page size DMA writes.
system.pc.south_bridge.ide.disks.dma_write_txs           18                       # Number of DMA write transactions.
system.ruby.DMA_Controller.I.allocI_load |      193401    100.00%    100.00% |           0      0.00%    100.00%
system.ruby.DMA_Controller.I.allocI_load::total       193401                      
system.ruby.DMA_Controller.I.allocI_store |        1152    100.00%    100.00% |           0      0.00%    100.00%
system.ruby.DMA_Controller.I.allocI_store::total         1152                      
system.ruby.DMA_Controller.I.deallocnet0from_in |         832    100.00%    100.00% |           0      0.00%    100.00%
system.ruby.DMA_Controller.I.deallocnet0from_in::total          832                      
system.ruby.DMA_Controller.I.deallocnet2from_in |      192698    100.00%    100.00% |           0      0.00%    100.00%
system.ruby.DMA_Controller.I.deallocnet2from_in::total       192698                      
system.ruby.DMA_Controller.M.allocTBE    |        1152    100.00%    100.00% |           0      0.00%    100.00%
system.ruby.DMA_Controller.M.allocTBE::total         1152                      
system.ruby.DMA_Controller.M.externalstoreMnet1from_in |        1152    100.00%    100.00% |           0      0.00%    100.00%
system.ruby.DMA_Controller.M.externalstoreMnet1from_in::total         1152                      
system.ruby.DMA_Controller.M_evict.Stallmandatory_in |       12360    100.00%    100.00% |           0      0.00%    100.00%
system.ruby.DMA_Controller.M_evict.Stallmandatory_in::total        12360                      
system.ruby.DMA_Controller.S.SloadSEvent |         491    100.00%    100.00% |           0      0.00%    100.00%
system.ruby.DMA_Controller.S.SloadSEvent::total          491                      
system.ruby.DMA_Controller.S.allocTBE    |      192701    100.00%    100.00% |           0      0.00%    100.00%
system.ruby.DMA_Controller.S.allocTBE::total       192701                      
system.ruby.DMA_Controller.S.deallocTBE  |         320    100.00%    100.00% |           0      0.00%    100.00%
system.ruby.DMA_Controller.S.deallocTBE::total          320                      
system.ruby.DMA_Controller.S.externalloadSnet0from_in |      193038    100.00%    100.00% |           0      0.00%    100.00%
system.ruby.DMA_Controller.S.externalloadSnet0from_in::total       193038                      
system.ruby.DMA_Controller.S.externalloadSrespfrom_in |         363    100.00%    100.00% |           0      0.00%    100.00%
system.ruby.DMA_Controller.S.externalloadSrespfrom_in::total          363                      
system.ruby.DMA_Controller.S_evict.Stallmandatory_in |      559083    100.00%    100.00% |           0      0.00%    100.00%
system.ruby.DMA_Controller.S_evict.Stallmandatory_in::total       559083                      
system.ruby.DMA_Controller.SloadSEvent   |         491    100.00%    100.00% |           0      0.00%    100.00%
system.ruby.DMA_Controller.SloadSEvent::total          491                      
system.ruby.DMA_Controller.Stallmandatory_in |      571443    100.00%    100.00% |           0      0.00%    100.00%
system.ruby.DMA_Controller.Stallmandatory_in::total       571443                      
system.ruby.DMA_Controller.allocI_load   |      193401    100.00%    100.00% |           0      0.00%    100.00%
system.ruby.DMA_Controller.allocI_load::total       193401                      
system.ruby.DMA_Controller.allocI_store  |        1152    100.00%    100.00% |           0      0.00%    100.00%
system.ruby.DMA_Controller.allocI_store::total         1152                      
system.ruby.DMA_Controller.allocTBE      |      193853    100.00%    100.00% |           0      0.00%    100.00%
system.ruby.DMA_Controller.allocTBE::total       193853                      
system.ruby.DMA_Controller.deallocTBE    |         320    100.00%    100.00% |           0      0.00%    100.00%
system.ruby.DMA_Controller.deallocTBE::total          320                      
system.ruby.DMA_Controller.deallocnet0from_in |         832    100.00%    100.00% |           0      0.00%    100.00%
system.ruby.DMA_Controller.deallocnet0from_in::total          832                      
system.ruby.DMA_Controller.deallocnet2from_in |      192698    100.00%    100.00% |           0      0.00%    100.00%
system.ruby.DMA_Controller.deallocnet2from_in::total       192698                      
system.ruby.DMA_Controller.externalloadSnet0from_in |      193038    100.00%    100.00% |           0      0.00%    100.00%
system.ruby.DMA_Controller.externalloadSnet0from_in::total       193038                      
system.ruby.DMA_Controller.externalloadSrespfrom_in |         363    100.00%    100.00% |           0      0.00%    100.00%
system.ruby.DMA_Controller.externalloadSrespfrom_in::total          363                      
system.ruby.DMA_Controller.externalstoreMnet1from_in |        1152    100.00%    100.00% |           0      0.00%    100.00%
system.ruby.DMA_Controller.externalstoreMnet1from_in::total         1152                      
system.ruby.Directory_Controller.I.allocTBE |     6071333     25.79%     25.79% |     6033507     25.63%     51.43% |     5773071     24.53%     75.95% |     5660799     24.05%    100.00%
system.ruby.Directory_Controller.I.allocTBE::total     23538710                      
system.ruby.Directory_Controller.I.deallocTBE |     6070471     25.79%     25.79% |     6032655     25.63%     51.43% |     5772207     24.53%     75.95% |     5659888     24.05%    100.00%
system.ruby.Directory_Controller.I.deallocTBE::total     23535221                      
system.ruby.Directory_Controller.I_GetML1C1_0.Stallreqto_in |           0      0.00%      0.00% |           0      0.00%      0.00% |           0      0.00%      0.00% |           4    100.00%    100.00%
system.ruby.Directory_Controller.I_GetML1C1_0.Stallreqto_in::total            4                      
system.ruby.Directory_Controller.I_GetSL1C1_0.Stallreqto_in |        2955     19.48%     19.48% |        9307     61.36%     80.84% |        1942     12.80%     93.64% |         965      6.36%    100.00%
system.ruby.Directory_Controller.I_GetSL1C1_0.Stallreqto_in::total        15169                      
system.ruby.Directory_Controller.M.allocTBE |     3092300     24.99%     24.99% |     3129369     25.29%     50.28% |     3082750     24.91%     75.19% |     3069322     24.81%    100.00%
system.ruby.Directory_Controller.M.allocTBE::total     12373741                      
system.ruby.Directory_Controller.M.deallocTBE |     3092457     24.99%     24.99% |     3129510     25.29%     50.28% |     3082904     24.91%     75.19% |     3069496     24.81%    100.00%
system.ruby.Directory_Controller.M.deallocTBE::total     12374367                      
system.ruby.Directory_Controller.M_GetS.Progress |       30481     21.06%     21.06% |       49302     34.07%     55.13% |       46854     32.38%     87.51% |       18070     12.49%    100.00%
system.ruby.Directory_Controller.M_GetS.Progress::total       144707                      
system.ruby.Directory_Controller.M_GetS.Stallreqto_in |         577     23.67%     23.67% |         151      6.19%     29.86% |        1115     45.73%     75.59% |         595     24.41%    100.00%
system.ruby.Directory_Controller.M_GetS.Stallreqto_in::total         2438                      
system.ruby.Directory_Controller.M_GetS_WBL1C1_0.Stallreqto_in |        8491     30.85%     30.85% |        9634     35.00%     65.86% |        5272     19.16%     85.01% |        4125     14.99%    100.00%
system.ruby.Directory_Controller.M_GetS_WBL1C1_0.Stallreqto_in::total        27522                      
system.ruby.Directory_Controller.M_PutML1C1_0.Stallreqto_in |           4     16.00%     16.00% |          15     60.00%     76.00% |           0      0.00%     76.00% |           6     24.00%    100.00%
system.ruby.Directory_Controller.M_PutML1C1_0.Stallreqto_in::total           25                      
system.ruby.Directory_Controller.Progress |       30481     21.06%     21.06% |       49302     34.07%     55.13% |       46854     32.38%     87.51% |       18070     12.49%    100.00%
system.ruby.Directory_Controller.Progress::total       144707                      
system.ruby.Directory_Controller.S.allocTBE |     7086695     25.81%     25.81% |     6949055     25.31%     51.13% |     6791972     24.74%     75.87% |     6624294     24.13%    100.00%
system.ruby.Directory_Controller.S.allocTBE::total     27452016                      
system.ruby.Directory_Controller.S.deallocTBE |     7087400     25.81%     25.81% |     6949766     25.31%     51.13% |     6792682     24.74%     75.87% |     6625031     24.13%    100.00%
system.ruby.Directory_Controller.S.deallocTBE::total     27454879                      
system.ruby.Directory_Controller.S_GetML1C1_0.Stallreqto_in |           2      2.17%      2.17% |           6      6.52%      8.70% |          84     91.30%    100.00% |           0      0.00%    100.00%
system.ruby.Directory_Controller.S_GetML1C1_0.Stallreqto_in::total           92                      
system.ruby.Directory_Controller.S_GetML1C1_1.Stallreqto_in |          62      6.74%      6.74% |         445     48.37%     55.11% |         378     41.09%     96.20% |          35      3.80%    100.00%
system.ruby.Directory_Controller.S_GetML1C1_1.Stallreqto_in::total          920                      
system.ruby.Directory_Controller.S_GetML1C1_2.Stallreqto_in |           7     25.93%     25.93% |          12     44.44%     70.37% |           4     14.81%     85.19% |           4     14.81%    100.00%
system.ruby.Directory_Controller.S_GetML1C1_2.Stallreqto_in::total           27                      
system.ruby.Directory_Controller.S_GetSL1C1_0.Stallreqto_in |       11211     34.18%     34.18% |       11756     35.84%     70.02% |        4974     15.16%     85.19% |        4859     14.81%    100.00%
system.ruby.Directory_Controller.S_GetSL1C1_0.Stallreqto_in::total        32800                      
system.ruby.Directory_Controller.Stallreqto_in |       23309     29.51%     29.51% |       31326     39.65%     69.16% |       13769     17.43%     86.59% |       10593     13.41%    100.00%
system.ruby.Directory_Controller.Stallreqto_in::total        78997                      
system.ruby.Directory_Controller.allocTBE |    16250328     25.65%     25.65% |    16111931     25.43%     51.07% |    15647793     24.69%     75.77% |    15354415     24.23%    100.00%
system.ruby.Directory_Controller.allocTBE::total     63364467                      
system.ruby.Directory_Controller.deallocTBE |    16250328     25.65%     25.65% |    16111931     25.43%     51.07% |    15647793     24.69%     75.77% |    15354415     24.23%    100.00%
system.ruby.Directory_Controller.deallocTBE::total     63364467                      
system.ruby.IFETCH.hit_latency_hist_seqr::bucket_size            1                      
system.ruby.IFETCH.hit_latency_hist_seqr::max_bucket            9                      
system.ruby.IFETCH.hit_latency_hist_seqr::samples   2913504207                      
system.ruby.IFETCH.hit_latency_hist_seqr |  2913504207    100.00%    100.00% |           0      0.00%    100.00% |           0      0.00%    100.00% |           0      0.00%    100.00% |           0      0.00%    100.00% |           0      0.00%    100.00% |           0      0.00%    100.00% |           0      0.00%    100.00% |           0      0.00%    100.00% |           0      0.00%    100.00%
system.ruby.IFETCH.hit_latency_hist_seqr::total   2913504207                      
system.ruby.IFETCH.latency_hist_seqr::bucket_size            1                      
system.ruby.IFETCH.latency_hist_seqr::max_bucket            9                      
system.ruby.IFETCH.latency_hist_seqr::samples   2923297133                      
system.ruby.IFETCH.latency_hist_seqr     |  2923297133    100.00%    100.00% |           0      0.00%    100.00% |           0      0.00%    100.00% |           0      0.00%    100.00% |           0      0.00%    100.00% |           0      0.00%    100.00% |           0      0.00%    100.00% |           0      0.00%    100.00% |           0      0.00%    100.00% |           0      0.00%    100.00%
system.ruby.IFETCH.latency_hist_seqr::total   2923297133                      
system.ruby.IFETCH.miss_latency_hist_seqr::bucket_size            1                      
system.ruby.IFETCH.miss_latency_hist_seqr::max_bucket            9                      
system.ruby.IFETCH.miss_latency_hist_seqr::samples      9792926                      
system.ruby.IFETCH.miss_latency_hist_seqr |     9792926    100.00%    100.00% |           0      0.00%    100.00% |           0      0.00%    100.00% |           0      0.00%    100.00% |           0      0.00%    100.00% |           0      0.00%    100.00% |           0      0.00%    100.00% |           0      0.00%    100.00% |           0      0.00%    100.00% |           0      0.00%    100.00%
system.ruby.IFETCH.miss_latency_hist_seqr::total      9792926                      
system.ruby.L1Cache_Controller.I.allocI_load |     4528355     20.50%     20.50% |     4570772     20.69%     41.19% |     4621954     20.92%     62.11% |     8369785     37.89%    100.00%
system.ruby.L1Cache_Controller.I.allocI_load::total     22090866                      
system.ruby.L1Cache_Controller.I.allocI_store |     1811483     27.23%     27.23% |     1578170     23.72%     50.96% |     1706089     25.65%     76.61% |     1556225     23.39%    100.00%
system.ruby.L1Cache_Controller.I.allocI_store::total      6651967                      
system.ruby.L1Cache_Controller.I.deallocnet0from_in |     3152771     25.78%     25.78% |     3085889     25.24%     51.02% |     3183650     26.04%     77.05% |     2805802     22.95%    100.00%
system.ruby.L1Cache_Controller.I.deallocnet0from_in::total     12228112                      
system.ruby.L1Cache_Controller.I.deallocnet1from_in |          24     28.24%     28.24% |          20     23.53%     51.76% |          20     23.53%     75.29% |          21     24.71%    100.00%
system.ruby.L1Cache_Controller.I.deallocnet1from_in::total           85                      
system.ruby.L1Cache_Controller.I.deallocnet2from_in |     3186025     19.30%     19.30% |     3062085     18.55%     37.84% |     3143397     19.04%     56.88% |     7119166     43.12%    100.00%
system.ruby.L1Cache_Controller.I.deallocnet2from_in::total     16510673                      
system.ruby.L1Cache_Controller.I_evict.Progress |          24     28.24%     28.24% |          20     23.53%     51.76% |          20     23.53%     75.29% |          21     24.71%    100.00%
system.ruby.L1Cache_Controller.I_evict.Progress::total           85                      
system.ruby.L1Cache_Controller.I_evict.Stallmandatory_in |          25     25.51%     25.51% |          17     17.35%     42.86% |          27     27.55%     70.41% |          29     29.59%    100.00%
system.ruby.L1Cache_Controller.I_evict.Stallmandatory_in::total           98                      
system.ruby.L1Cache_Controller.I_store.Progress |          75     24.27%     24.27% |          86     27.83%     52.10% |          75     24.27%     76.38% |          73     23.62%    100.00%
system.ruby.L1Cache_Controller.I_store.Progress::total          309                      
system.ruby.L1Cache_Controller.I_store.Stallnet0from_in |         159     25.20%     25.20% |         206     32.65%     57.84% |         153     24.25%     82.09% |         113     17.91%    100.00%
system.ruby.L1Cache_Controller.I_store.Stallnet0from_in::total          631                      
system.ruby.L1Cache_Controller.I_store_GetM_Ack_AD.Progress |        6093     43.82%     43.82% |        1821     13.10%     56.92% |        4133     29.73%     86.64% |        1857     13.36%    100.00%
system.ruby.L1Cache_Controller.I_store_GetM_Ack_AD.Progress::total        13904                      
system.ruby.L1Cache_Controller.I_store_GetM_Ack_AD.Stallnet0from_in |          43     29.05%     29.05% |          32     21.62%     50.68% |          36     24.32%     75.00% |          37     25.00%    100.00%
system.ruby.L1Cache_Controller.I_store_GetM_Ack_AD.Stallnet0from_in::total          148                      
system.ruby.L1Cache_Controller.M.MloadMEvent |   117971063     26.89%     26.89% |   111930691     25.51%     52.41% |   109024031     24.85%     77.26% |    99773331     22.74%    100.00%
system.ruby.L1Cache_Controller.M.MloadMEvent::total    438699116                      
system.ruby.L1Cache_Controller.M.MstoreMEvent |    87666434     26.36%     26.36% |    80870377     24.31%     50.67% |    82447598     24.79%     75.46% |    81621625     24.54%    100.00%
system.ruby.L1Cache_Controller.M.MstoreMEvent::total    332606034                      
system.ruby.L1Cache_Controller.M.allocTBE |     3194005     25.82%     25.82% |     3121389     25.23%     51.04% |     3220294     26.03%     77.07% |     2836816     22.93%    100.00%
system.ruby.L1Cache_Controller.M.allocTBE::total     12372504                      
system.ruby.L1Cache_Controller.M.externalstoreMnet1from_in |     3140374     25.81%     25.81% |     3073027     25.25%     51.06% |     3167123     26.03%     77.09% |     2788505     22.91%    100.00%
system.ruby.L1Cache_Controller.M.externalstoreMnet1from_in::total     12169029                      
system.ruby.L1Cache_Controller.M.externalstoreMrespfrom_in |       53786     26.35%     26.35% |       48502     23.76%     50.12% |       53306     26.12%     76.23% |       48507     23.77%    100.00%
system.ruby.L1Cache_Controller.M.externalstoreMrespfrom_in::total       204101                      
system.ruby.L1Cache_Controller.M_evict.Stallmandatory_in |       10018     24.52%     24.52% |       10215     25.00%     49.52% |       11413     27.93%     77.45% |        9213     22.55%    100.00%
system.ruby.L1Cache_Controller.M_evict.Stallmandatory_in::total        40859                      
system.ruby.L1Cache_Controller.MloadMEvent |   117971063     26.89%     26.89% |   111930691     25.51%     52.41% |   109024031     24.85%     77.26% |    99773331     22.74%    100.00%
system.ruby.L1Cache_Controller.MloadMEvent::total    438699116                      
system.ruby.L1Cache_Controller.MstoreMEvent |    87666434     26.36%     26.36% |    80870377     24.31%     50.67% |    82447598     24.79%     75.46% |    81621625     24.54%    100.00%
system.ruby.L1Cache_Controller.MstoreMEvent::total    332606034                      
system.ruby.L1Cache_Controller.Progress  |     1433200     24.35%     24.35% |     1579080     26.83%     51.18% |     1554423     26.41%     77.60% |     1318410     22.40%    100.00%
system.ruby.L1Cache_Controller.Progress::total      5885113                      
system.ruby.L1Cache_Controller.S.SloadSEvent |   809540647     26.28%     26.28% |   775392278     25.17%     51.46% |   780536072     25.34%     76.80% |   714561848     23.20%    100.00%
system.ruby.L1Cache_Controller.S.SloadSEvent::total   3080030845                      
system.ruby.L1Cache_Controller.S.allocTBE |     4568722     20.55%     20.55% |     4605460     20.72%     41.27% |     4657754     20.95%     62.22% |     8399963     37.78%    100.00%
system.ruby.L1Cache_Controller.S.allocTBE::total     22231899                      
system.ruby.L1Cache_Controller.S.deallocTBE |       41230     28.56%     28.56% |       35496     24.59%     53.15% |       36641     25.38%     78.53% |       31002     21.47%    100.00%
system.ruby.L1Cache_Controller.S.deallocTBE::total       144369                      
system.ruby.L1Cache_Controller.S.externalloadSnet0from_in |     4496159     20.49%     20.49% |     4535950     20.67%     41.16% |     4585406     20.89%     62.05% |     8329007     37.95%    100.00%
system.ruby.L1Cache_Controller.S.externalloadSnet0from_in::total     21946522                      
system.ruby.L1Cache_Controller.S.externalloadSrespfrom_in |       32196     22.31%     22.31% |       34822     24.12%     46.43% |       36548     25.32%     71.75% |       40778     28.25%    100.00%
system.ruby.L1Cache_Controller.S.externalloadSrespfrom_in::total       144344                      
system.ruby.L1Cache_Controller.S_evict.Progress |           4     22.22%     22.22% |           4     22.22%     44.44% |           2     11.11%     55.56% |           8     44.44%    100.00%
system.ruby.L1Cache_Controller.S_evict.Progress::total           18                      
system.ruby.L1Cache_Controller.S_evict.Stallmandatory_in |        4581     23.23%     23.23% |        4572     23.19%     46.42% |        5212     26.43%     72.85% |        5354     27.15%    100.00%
system.ruby.L1Cache_Controller.S_evict.Stallmandatory_in::total        19719                      
system.ruby.L1Cache_Controller.S_evict.Stallnet1from_in |           2     22.22%     22.22% |           3     33.33%     55.56% |           0      0.00%     55.56% |           4     44.44%    100.00%
system.ruby.L1Cache_Controller.S_evict.Stallnet1from_in::total            9                      
system.ruby.L1Cache_Controller.S_store.Progress |     1382677     24.17%     24.17% |     1543359     26.98%     51.14% |     1514340     26.47%     77.61% |     1280789     22.39%    100.00%
system.ruby.L1Cache_Controller.S_store.Progress::total      5721165                      
system.ruby.L1Cache_Controller.S_store.Stallnet0from_in |         287     28.47%     28.47% |         299     29.66%     58.13% |         207     20.54%     78.67% |         215     21.33%    100.00%
system.ruby.L1Cache_Controller.S_store.Stallnet0from_in::total         1008                      
system.ruby.L1Cache_Controller.S_store_GetM_Ack_AD.Progress |       44327     29.62%     29.62% |       33790     22.58%     52.21% |       35853     23.96%     76.17% |       35662     23.83%    100.00%
system.ruby.L1Cache_Controller.S_store_GetM_Ack_AD.Progress::total       149632                      
system.ruby.L1Cache_Controller.S_store_GetM_Ack_AD.Stallnet0from_in |        6349     53.55%     53.55% |        2693     22.71%     76.27% |        1670     14.09%     90.35% |        1144      9.65%    100.00%
system.ruby.L1Cache_Controller.S_store_GetM_Ack_AD.Stallnet0from_in::total        11856                      
system.ruby.L1Cache_Controller.SloadSEvent |   809540647     26.28%     26.28% |   775392278     25.17%     51.46% |   780536072     25.34%     76.80% |   714561848     23.20%    100.00%
system.ruby.L1Cache_Controller.SloadSEvent::total   3080030845                      
system.ruby.L1Cache_Controller.Stallmandatory_in |       14624     24.10%     24.10% |       14804     24.40%     48.50% |       16652     27.44%     75.94% |       14596     24.06%    100.00%
system.ruby.L1Cache_Controller.Stallmandatory_in::total        60676                      
system.ruby.L1Cache_Controller.Stallnet0from_in |        6838     50.12%     50.12% |        3230     23.68%     73.80% |        2066     15.14%     88.94% |        1509     11.06%    100.00%
system.ruby.L1Cache_Controller.Stallnet0from_in::total        13643                      
system.ruby.L1Cache_Controller.Stallnet1from_in |           2     22.22%     22.22% |           3     33.33%     55.56% |           0      0.00%     55.56% |           4     44.44%    100.00%
system.ruby.L1Cache_Controller.Stallnet1from_in::total            9                      
system.ruby.L1Cache_Controller.allocI_load |     4528355     20.50%     20.50% |     4570772     20.69%     41.19% |     4621954     20.92%     62.11% |     8369785     37.89%    100.00%
system.ruby.L1Cache_Controller.allocI_load::total     22090866                      
system.ruby.L1Cache_Controller.allocI_store |     1811483     27.23%     27.23% |     1578170     23.72%     50.96% |     1706089     25.65%     76.61% |     1556225     23.39%    100.00%
system.ruby.L1Cache_Controller.allocI_store::total      6651967                      
system.ruby.L1Cache_Controller.allocTBE  |     7762727     22.43%     22.43% |     7726849     22.33%     44.76% |     7878048     22.77%     67.53% |    11236779     32.47%    100.00%
system.ruby.L1Cache_Controller.allocTBE::total     34604403                      
system.ruby.L1Cache_Controller.deallocTBE |       41230     28.56%     28.56% |       35496     24.59%     53.15% |       36641     25.38%     78.53% |       31002     21.47%    100.00%
system.ruby.L1Cache_Controller.deallocTBE::total       144369                      
system.ruby.L1Cache_Controller.deallocnet0from_in |     3152771     25.78%     25.78% |     3085889     25.24%     51.02% |     3183650     26.04%     77.05% |     2805802     22.95%    100.00%
system.ruby.L1Cache_Controller.deallocnet0from_in::total     12228112                      
system.ruby.L1Cache_Controller.deallocnet1from_in |          24     28.24%     28.24% |          20     23.53%     51.76% |          20     23.53%     75.29% |          21     24.71%    100.00%
system.ruby.L1Cache_Controller.deallocnet1from_in::total           85                      
system.ruby.L1Cache_Controller.deallocnet2from_in |     3186025     19.30%     19.30% |     3062085     18.55%     37.84% |     3143397     19.04%     56.88% |     7119166     43.12%    100.00%
system.ruby.L1Cache_Controller.deallocnet2from_in::total     16510673                      
system.ruby.L1Cache_Controller.externalloadSnet0from_in |     4496159     20.49%     20.49% |     4535950     20.67%     41.16% |     4585406     20.89%     62.05% |     8329007     37.95%    100.00%
system.ruby.L1Cache_Controller.externalloadSnet0from_in::total     21946522                      
system.ruby.L1Cache_Controller.externalloadSrespfrom_in |       32196     22.31%     22.31% |       34822     24.12%     46.43% |       36548     25.32%     71.75% |       40778     28.25%    100.00%
system.ruby.L1Cache_Controller.externalloadSrespfrom_in::total       144344                      
system.ruby.L1Cache_Controller.externalstoreMnet1from_in |     3140374     25.81%     25.81% |     3073027     25.25%     51.06% |     3167123     26.03%     77.09% |     2788505     22.91%    100.00%
system.ruby.L1Cache_Controller.externalstoreMnet1from_in::total     12169029                      
system.ruby.L1Cache_Controller.externalstoreMrespfrom_in |       53786     26.35%     26.35% |       48502     23.76%     50.12% |       53306     26.12%     76.23% |       48507     23.77%    100.00%
system.ruby.L1Cache_Controller.externalstoreMrespfrom_in::total       204101                      
system.ruby.LD.hit_latency_hist_seqr::bucket_size            1                      
system.ruby.LD.hit_latency_hist_seqr::max_bucket            9                      
system.ruby.LD.hit_latency_hist_seqr::samples    605225754                      
system.ruby.LD.hit_latency_hist_seqr     |   605225754    100.00%    100.00% |           0      0.00%    100.00% |           0      0.00%    100.00% |           0      0.00%    100.00% |           0      0.00%    100.00% |           0      0.00%    100.00% |           0      0.00%    100.00% |           0      0.00%    100.00% |           0      0.00%    100.00% |           0      0.00%    100.00%
system.ruby.LD.hit_latency_hist_seqr::total    605225754                      
system.ruby.LD.latency_hist_seqr::bucket_size            1                      
system.ruby.LD.latency_hist_seqr::max_bucket            9                      
system.ruby.LD.latency_hist_seqr::samples    617523694                      
system.ruby.LD.latency_hist_seqr         |   617523694    100.00%    100.00% |           0      0.00%    100.00% |           0      0.00%    100.00% |           0      0.00%    100.00% |           0      0.00%    100.00% |           0      0.00%    100.00% |           0      0.00%    100.00% |           0      0.00%    100.00% |           0      0.00%    100.00% |           0      0.00%    100.00%
system.ruby.LD.latency_hist_seqr::total     617523694                      
system.ruby.LD.miss_latency_hist_seqr::bucket_size            1                      
system.ruby.LD.miss_latency_hist_seqr::max_bucket            9                      
system.ruby.LD.miss_latency_hist_seqr::samples     12297940                      
system.ruby.LD.miss_latency_hist_seqr    |    12297940    100.00%    100.00% |           0      0.00%    100.00% |           0      0.00%    100.00% |           0      0.00%    100.00% |           0      0.00%    100.00% |           0      0.00%    100.00% |           0      0.00%    100.00% |           0      0.00%    100.00% |           0      0.00%    100.00% |           0      0.00%    100.00%
system.ruby.LD.miss_latency_hist_seqr::total     12297940                      
system.ruby.Locked_RMW_Read.hit_latency_hist_seqr::bucket_size            1                      
system.ruby.Locked_RMW_Read.hit_latency_hist_seqr::max_bucket            9                      
system.ruby.Locked_RMW_Read.hit_latency_hist_seqr::samples      1109156                      
system.ruby.Locked_RMW_Read.hit_latency_hist_seqr |     1109156    100.00%    100.00% |           0      0.00%    100.00% |           0      0.00%    100.00% |           0      0.00%    100.00% |           0      0.00%    100.00% |           0      0.00%    100.00% |           0      0.00%    100.00% |           0      0.00%    100.00% |           0      0.00%    100.00% |           0      0.00%    100.00%
system.ruby.Locked_RMW_Read.hit_latency_hist_seqr::total      1109156                      
system.ruby.Locked_RMW_Read.latency_hist_seqr::bucket_size            1                      
system.ruby.Locked_RMW_Read.latency_hist_seqr::max_bucket            9                      
system.ruby.Locked_RMW_Read.latency_hist_seqr::samples      1466385                      
system.ruby.Locked_RMW_Read.latency_hist_seqr |     1466385    100.00%    100.00% |           0      0.00%    100.00% |           0      0.00%    100.00% |           0      0.00%    100.00% |           0      0.00%    100.00% |           0      0.00%    100.00% |           0      0.00%    100.00% |           0      0.00%    100.00% |           0      0.00%    100.00% |           0      0.00%    100.00%
system.ruby.Locked_RMW_Read.latency_hist_seqr::total      1466385                      
system.ruby.Locked_RMW_Read.miss_latency_hist_seqr::bucket_size            1                      
system.ruby.Locked_RMW_Read.miss_latency_hist_seqr::max_bucket            9                      
system.ruby.Locked_RMW_Read.miss_latency_hist_seqr::samples       357229                      
system.ruby.Locked_RMW_Read.miss_latency_hist_seqr |      357229    100.00%    100.00% |           0      0.00%    100.00% |           0      0.00%    100.00% |           0      0.00%    100.00% |           0      0.00%    100.00% |           0      0.00%    100.00% |           0      0.00%    100.00% |           0      0.00%    100.00% |           0      0.00%    100.00% |           0      0.00%    100.00%
system.ruby.Locked_RMW_Read.miss_latency_hist_seqr::total       357229                      
system.ruby.Locked_RMW_Write.hit_latency_hist_seqr::bucket_size            1                      
system.ruby.Locked_RMW_Write.hit_latency_hist_seqr::max_bucket            9                      
system.ruby.Locked_RMW_Write.hit_latency_hist_seqr::samples      1466385                      
system.ruby.Locked_RMW_Write.hit_latency_hist_seqr |     1466385    100.00%    100.00% |           0      0.00%    100.00% |           0      0.00%    100.00% |           0      0.00%    100.00% |           0      0.00%    100.00% |           0      0.00%    100.00% |           0      0.00%    100.00% |           0      0.00%    100.00% |           0      0.00%    100.00% |           0      0.00%    100.00%
system.ruby.Locked_RMW_Write.hit_latency_hist_seqr::total      1466385                      
system.ruby.Locked_RMW_Write.latency_hist_seqr::bucket_size            1                      
system.ruby.Locked_RMW_Write.latency_hist_seqr::max_bucket            9                      
system.ruby.Locked_RMW_Write.latency_hist_seqr::samples      1466385                      
system.ruby.Locked_RMW_Write.latency_hist_seqr |     1466385    100.00%    100.00% |           0      0.00%    100.00% |           0      0.00%    100.00% |           0      0.00%    100.00% |           0      0.00%    100.00% |           0      0.00%    100.00% |           0      0.00%    100.00% |           0      0.00%    100.00% |           0      0.00%    100.00% |           0      0.00%    100.00%
system.ruby.Locked_RMW_Write.latency_hist_seqr::total      1466385                      
system.ruby.RMW_Read.hit_latency_hist_seqr::bucket_size            1                      
system.ruby.RMW_Read.hit_latency_hist_seqr::max_bucket            9                      
system.ruby.RMW_Read.hit_latency_hist_seqr::samples     16004002                      
system.ruby.RMW_Read.hit_latency_hist_seqr |    16004002    100.00%    100.00% |           0      0.00%    100.00% |           0      0.00%    100.00% |           0      0.00%    100.00% |           0      0.00%    100.00% |           0      0.00%    100.00% |           0      0.00%    100.00% |           0      0.00%    100.00% |           0      0.00%    100.00% |           0      0.00%    100.00%
system.ruby.RMW_Read.hit_latency_hist_seqr::total     16004002                      
system.ruby.RMW_Read.latency_hist_seqr::bucket_size            1                      
system.ruby.RMW_Read.latency_hist_seqr::max_bucket            9                      
system.ruby.RMW_Read.latency_hist_seqr::samples     16433190                      
system.ruby.RMW_Read.latency_hist_seqr   |    16433190    100.00%    100.00% |           0      0.00%    100.00% |           0      0.00%    100.00% |           0      0.00%    100.00% |           0      0.00%    100.00% |           0      0.00%    100.00% |           0      0.00%    100.00% |           0      0.00%    100.00% |           0      0.00%    100.00% |           0      0.00%    100.00%
system.ruby.RMW_Read.latency_hist_seqr::total     16433190                      
system.ruby.RMW_Read.miss_latency_hist_seqr::bucket_size            1                      
system.ruby.RMW_Read.miss_latency_hist_seqr::max_bucket            9                      
system.ruby.RMW_Read.miss_latency_hist_seqr::samples       429188                      
system.ruby.RMW_Read.miss_latency_hist_seqr |      429188    100.00%    100.00% |           0      0.00%    100.00% |           0      0.00%    100.00% |           0      0.00%    100.00% |           0      0.00%    100.00% |           0      0.00%    100.00% |           0      0.00%    100.00% |           0      0.00%    100.00% |           0      0.00%    100.00% |           0      0.00%    100.00%
system.ruby.RMW_Read.miss_latency_hist_seqr::total       429188                      
system.ruby.ST.hit_latency_hist_seqr::bucket_size            1                      
system.ruby.ST.hit_latency_hist_seqr::max_bucket            9                      
system.ruby.ST.hit_latency_hist_seqr::samples    314026491                      
system.ruby.ST.hit_latency_hist_seqr     |   314026491    100.00%    100.00% |           0      0.00%    100.00% |           0      0.00%    100.00% |           0      0.00%    100.00% |           0      0.00%    100.00% |           0      0.00%    100.00% |           0      0.00%    100.00% |           0      0.00%    100.00% |           0      0.00%    100.00% |           0      0.00%    100.00%
system.ruby.ST.hit_latency_hist_seqr::total    314026491                      
system.ruby.ST.latency_hist_seqr::bucket_size            1                      
system.ruby.ST.latency_hist_seqr::max_bucket            9                      
system.ruby.ST.latency_hist_seqr::samples    325613204                      
system.ruby.ST.latency_hist_seqr         |   325613204    100.00%    100.00% |           0      0.00%    100.00% |           0      0.00%    100.00% |           0      0.00%    100.00% |           0      0.00%    100.00% |           0      0.00%    100.00% |           0      0.00%    100.00% |           0      0.00%    100.00% |           0      0.00%    100.00% |           0      0.00%    100.00%
system.ruby.ST.latency_hist_seqr::total     325613204                      
system.ruby.ST.miss_latency_hist_seqr::bucket_size            1                      
system.ruby.ST.miss_latency_hist_seqr::max_bucket            9                      
system.ruby.ST.miss_latency_hist_seqr::samples     11586713                      
system.ruby.ST.miss_latency_hist_seqr    |    11586713    100.00%    100.00% |           0      0.00%    100.00% |           0      0.00%    100.00% |           0      0.00%    100.00% |           0      0.00%    100.00% |           0      0.00%    100.00% |           0      0.00%    100.00% |           0      0.00%    100.00% |           0      0.00%    100.00% |           0      0.00%    100.00%
system.ruby.ST.miss_latency_hist_seqr::total     11586713                      
system.ruby.dir_cntrl0.net0From.avg_buf_msgs     0.016912                       # Average number of messages in buffer
system.ruby.dir_cntrl0.net0From.avg_stall_time  3016.547370                       # Average number of cycles messages are stalled in this MB
system.ruby.dir_cntrl0.net1From.avg_buf_msgs     0.005761                       # Average number of messages in buffer
system.ruby.dir_cntrl0.net1From.avg_stall_time  3000.251610                       # Average number of cycles messages are stalled in this MB
system.ruby.dir_cntrl0.net2From.avg_buf_msgs     0.008142                       # Average number of messages in buffer
system.ruby.dir_cntrl0.net2From.avg_stall_time  2999.978713                       # Average number of cycles messages are stalled in this MB
system.ruby.dir_cntrl0.reqTo.avg_buf_msgs     0.005131                       # Average number of messages in buffer
system.ruby.dir_cntrl0.reqTo.avg_stall_time  5633.886346                       # Average number of cycles messages are stalled in this MB
system.ruby.dir_cntrl0.requestToMemory.avg_buf_msgs     0.003707                       # Average number of messages in buffer
system.ruby.dir_cntrl0.requestToMemory.avg_stall_time   499.999866                       # Average number of cycles messages are stalled in this MB
system.ruby.dir_cntrl0.respTo.avg_buf_msgs     0.000009                       # Average number of messages in buffer
system.ruby.dir_cntrl0.respTo.avg_stall_time 14117.668677                       # Average number of cycles messages are stalled in this MB
system.ruby.dir_cntrl0.responseFromMemory.avg_buf_msgs     0.003716                       # Average number of messages in buffer
system.ruby.dir_cntrl0.responseFromMemory.avg_stall_time   499.999840                       # Average number of cycles messages are stalled in this MB
system.ruby.dir_cntrl1.net0From.avg_buf_msgs     0.016836                       # Average number of messages in buffer
system.ruby.dir_cntrl1.net0From.avg_stall_time  3018.156697                       # Average number of cycles messages are stalled in this MB
system.ruby.dir_cntrl1.net1From.avg_buf_msgs     0.005815                       # Average number of messages in buffer
system.ruby.dir_cntrl1.net1From.avg_stall_time  3000.269416                       # Average number of cycles messages are stalled in this MB
system.ruby.dir_cntrl1.net2From.avg_buf_msgs     0.007988                       # Average number of messages in buffer
system.ruby.dir_cntrl1.net2From.avg_stall_time  2999.996724                       # Average number of cycles messages are stalled in this MB
system.ruby.dir_cntrl1.reqTo.avg_buf_msgs     0.005113                       # Average number of messages in buffer
system.ruby.dir_cntrl1.reqTo.avg_stall_time  5517.174910                       # Average number of cycles messages are stalled in this MB
system.ruby.dir_cntrl1.requestToMemory.avg_buf_msgs     0.003695                       # Average number of messages in buffer
system.ruby.dir_cntrl1.requestToMemory.avg_stall_time   499.999999                       # Average number of cycles messages are stalled in this MB
system.ruby.dir_cntrl1.respTo.avg_buf_msgs     0.000015                       # Average number of messages in buffer
system.ruby.dir_cntrl1.respTo.avg_stall_time 14521.243768                       # Average number of cycles messages are stalled in this MB
system.ruby.dir_cntrl1.responseFromMemory.avg_buf_msgs     0.003705                       # Average number of messages in buffer
system.ruby.dir_cntrl1.responseFromMemory.avg_stall_time   499.999972                       # Average number of cycles messages are stalled in this MB
system.ruby.dir_cntrl2.net0From.avg_buf_msgs     0.017126                       # Average number of messages in buffer
system.ruby.dir_cntrl2.net0From.avg_stall_time  3035.145781                       # Average number of cycles messages are stalled in this MB
system.ruby.dir_cntrl2.net1From.avg_buf_msgs     0.005703                       # Average number of messages in buffer
system.ruby.dir_cntrl2.net1From.avg_stall_time  3000.655715                       # Average number of cycles messages are stalled in this MB
system.ruby.dir_cntrl2.net2From.avg_buf_msgs     0.007680                       # Average number of messages in buffer
system.ruby.dir_cntrl2.net2From.avg_stall_time  2999.963323                       # Average number of cycles messages are stalled in this MB
system.ruby.dir_cntrl2.reqTo.avg_buf_msgs     0.004914                       # Average number of messages in buffer
system.ruby.dir_cntrl2.reqTo.avg_stall_time  5453.689828                       # Average number of cycles messages are stalled in this MB
system.ruby.dir_cntrl2.requestToMemory.avg_buf_msgs     0.003595                       # Average number of messages in buffer
system.ruby.dir_cntrl2.requestToMemory.avg_stall_time   499.999763                       # Average number of cycles messages are stalled in this MB
system.ruby.dir_cntrl2.respTo.avg_buf_msgs     0.000015                       # Average number of messages in buffer
system.ruby.dir_cntrl2.respTo.avg_stall_time 14583.683578                       # Average number of cycles messages are stalled in this MB
system.ruby.dir_cntrl2.responseFromMemory.avg_buf_msgs     0.003603                       # Average number of messages in buffer
system.ruby.dir_cntrl2.responseFromMemory.avg_stall_time   499.999737                       # Average number of cycles messages are stalled in this MB
system.ruby.dir_cntrl3.net0From.avg_buf_msgs     0.016980                       # Average number of messages in buffer
system.ruby.dir_cntrl3.net0From.avg_stall_time  3038.526507                       # Average number of cycles messages are stalled in this MB
system.ruby.dir_cntrl3.net1From.avg_buf_msgs     0.005732                       # Average number of messages in buffer
system.ruby.dir_cntrl3.net1From.avg_stall_time  3000.691657                       # Average number of cycles messages are stalled in this MB
system.ruby.dir_cntrl3.net2From.avg_buf_msgs     0.007345                       # Average number of messages in buffer
system.ruby.dir_cntrl3.net2From.avg_stall_time  2999.996350                       # Average number of cycles messages are stalled in this MB
system.ruby.dir_cntrl3.reqTo.avg_buf_msgs     0.004812                       # Average number of messages in buffer
system.ruby.dir_cntrl3.reqTo.avg_stall_time  5424.991941                       # Average number of cycles messages are stalled in this MB
system.ruby.dir_cntrl3.requestToMemory.avg_buf_msgs     0.003559                       # Average number of messages in buffer
system.ruby.dir_cntrl3.requestToMemory.avg_stall_time   499.999998                       # Average number of cycles messages are stalled in this MB
system.ruby.dir_cntrl3.respTo.avg_buf_msgs     0.000006                       # Average number of messages in buffer
system.ruby.dir_cntrl3.respTo.avg_stall_time 14704.450696                       # Average number of cycles messages are stalled in this MB
system.ruby.dir_cntrl3.responseFromMemory.avg_buf_msgs     0.003568                       # Average number of messages in buffer
system.ruby.dir_cntrl3.responseFromMemory.avg_stall_time   499.999972                       # Average number of cycles messages are stalled in this MB
system.ruby.dma_cntrl0.cache.demand_accesses            0                       # Number of cache demand accesses
system.ruby.dma_cntrl0.cache.demand_hits            0                       # Number of cache demand hits
system.ruby.dma_cntrl0.cache.demand_misses            0                       # Number of cache demand misses
system.ruby.dma_cntrl0.fully_busy_cycles       174439                       # cycles for which number of transistions == max transitions
system.ruby.dma_cntrl0.mandatoryQueue.avg_buf_msgs     0.002131                       # Average number of messages in buffer
system.ruby.dma_cntrl0.mandatoryQueue.avg_stall_time 30141.692859                       # Average number of cycles messages are stalled in this MB
system.ruby.dma_cntrl0.net0From.avg_buf_msgs     0.000060                       # Average number of messages in buffer
system.ruby.dma_cntrl0.net0From.avg_stall_time 102369.870376                       # Average number of cycles messages are stalled in this MB
system.ruby.dma_cntrl0.net1From.avg_buf_msgs     0.000000                       # Average number of messages in buffer
system.ruby.dma_cntrl0.net1From.avg_stall_time 119098.387536                       # Average number of cycles messages are stalled in this MB
system.ruby.dma_cntrl0.net2From.avg_buf_msgs     0.000060                       # Average number of messages in buffer
system.ruby.dma_cntrl0.net2From.avg_stall_time  7036.338056                       # Average number of cycles messages are stalled in this MB
system.ruby.dma_cntrl0.reqTo.avg_buf_msgs     0.001029                       # Average number of messages in buffer
system.ruby.dma_cntrl0.reqTo.avg_stall_time   587.889639                       # Average number of cycles messages are stalled in this MB
system.ruby.dma_cntrl0.respFrom.avg_buf_msgs     0.000000                       # Average number of messages in buffer
system.ruby.dma_cntrl0.respFrom.avg_stall_time 57879.501247                       # Average number of cycles messages are stalled in this MB
system.ruby.dma_cntrl0.respTo.avg_buf_msgs     0.000000                       # Average number of messages in buffer
system.ruby.dma_cntrl0.respTo.avg_stall_time   495.706769                       # Average number of cycles messages are stalled in this MB
system.ruby.hit_latency_hist_seqr::bucket_size            1                      
system.ruby.hit_latency_hist_seqr::max_bucket            9                      
system.ruby.hit_latency_hist_seqr::samples   3851335995                      
system.ruby.hit_latency_hist_seqr        |  3851335995    100.00%    100.00% |           0      0.00%    100.00% |           0      0.00%    100.00% |           0      0.00%    100.00% |           0      0.00%    100.00% |           0      0.00%    100.00% |           0      0.00%    100.00% |           0      0.00%    100.00% |           0      0.00%    100.00% |           0      0.00%    100.00%
system.ruby.hit_latency_hist_seqr::total   3851335995                      
system.ruby.io_controller.cache.demand_accesses            0                       # Number of cache demand accesses
system.ruby.io_controller.cache.demand_hits            0                       # Number of cache demand hits
system.ruby.io_controller.cache.demand_misses            0                       # Number of cache demand misses
system.ruby.l1_cntrl0.cache.demand_accesses            0                       # Number of cache demand accesses
system.ruby.l1_cntrl0.cache.demand_hits             0                       # Number of cache demand hits
system.ruby.l1_cntrl0.cache.demand_misses            0                       # Number of cache demand misses
system.ruby.l1_cntrl0.fully_busy_cycles            60                       # cycles for which number of transistions == max transitions
system.ruby.l1_cntrl0.mandatoryQueue.avg_buf_msgs     0.379670                       # Average number of messages in buffer
system.ruby.l1_cntrl0.mandatoryQueue.avg_stall_time  3362.101183                       # Average number of cycles messages are stalled in this MB
system.ruby.l1_cntrl0.net0From.avg_buf_msgs    58.086824                       # Average number of messages in buffer
system.ruby.l1_cntrl0.net0From.avg_stall_time 13117.394294                       # Average number of cycles messages are stalled in this MB
system.ruby.l1_cntrl0.net1From.avg_buf_msgs     0.000990                       # Average number of messages in buffer
system.ruby.l1_cntrl0.net1From.avg_stall_time 16510.758605                       # Average number of cycles messages are stalled in this MB
system.ruby.l1_cntrl0.net2From.avg_buf_msgs     0.000992                       # Average number of messages in buffer
system.ruby.l1_cntrl0.net2From.avg_stall_time  6436.500361                       # Average number of cycles messages are stalled in this MB
system.ruby.l1_cntrl0.reqTo.avg_buf_msgs     0.004361                       # Average number of messages in buffer
system.ruby.l1_cntrl0.reqTo.avg_stall_time   499.935850                       # Average number of cycles messages are stalled in this MB
system.ruby.l1_cntrl0.respFrom.avg_buf_msgs     0.000030                       # Average number of messages in buffer
system.ruby.l1_cntrl0.respFrom.avg_stall_time 14351.766153                       # Average number of cycles messages are stalled in this MB
system.ruby.l1_cntrl0.respTo.avg_buf_msgs     0.000059                       # Average number of messages in buffer
system.ruby.l1_cntrl0.respTo.avg_stall_time   792.474391                       # Average number of cycles messages are stalled in this MB
system.ruby.l1_cntrl1.cache.demand_accesses            0                       # Number of cache demand accesses
system.ruby.l1_cntrl1.cache.demand_hits             0                       # Number of cache demand hits
system.ruby.l1_cntrl1.cache.demand_misses            0                       # Number of cache demand misses
system.ruby.l1_cntrl1.fully_busy_cycles            45                       # cycles for which number of transistions == max transitions
system.ruby.l1_cntrl1.mandatoryQueue.avg_buf_msgs     0.363456                       # Average number of messages in buffer
system.ruby.l1_cntrl1.mandatoryQueue.avg_stall_time  3117.537652                       # Average number of cycles messages are stalled in this MB
system.ruby.l1_cntrl1.net0From.avg_buf_msgs    50.463430                       # Average number of messages in buffer
system.ruby.l1_cntrl1.net0From.avg_stall_time 14113.587798                       # Average number of cycles messages are stalled in this MB
system.ruby.l1_cntrl1.net1From.avg_buf_msgs     0.000966                       # Average number of messages in buffer
system.ruby.l1_cntrl1.net1From.avg_stall_time 16516.139625                       # Average number of cycles messages are stalled in this MB
system.ruby.l1_cntrl1.net2From.avg_buf_msgs     0.000953                       # Average number of messages in buffer
system.ruby.l1_cntrl1.net2From.avg_stall_time  6572.805875                       # Average number of cycles messages are stalled in this MB
system.ruby.l1_cntrl1.reqTo.avg_buf_msgs     0.004290                       # Average number of messages in buffer
system.ruby.l1_cntrl1.reqTo.avg_stall_time   500.000038                       # Average number of cycles messages are stalled in this MB
system.ruby.l1_cntrl1.respFrom.avg_buf_msgs     0.000027                       # Average number of messages in buffer
system.ruby.l1_cntrl1.respFrom.avg_stall_time 14492.891691                       # Average number of cycles messages are stalled in this MB
system.ruby.l1_cntrl1.respTo.avg_buf_msgs     0.000052                       # Average number of messages in buffer
system.ruby.l1_cntrl1.respTo.avg_stall_time   621.211125                       # Average number of cycles messages are stalled in this MB
system.ruby.l1_cntrl2.cache.demand_accesses            0                       # Number of cache demand accesses
system.ruby.l1_cntrl2.cache.demand_hits             0                       # Number of cache demand hits
system.ruby.l1_cntrl2.cache.demand_misses            0                       # Number of cache demand misses
system.ruby.l1_cntrl2.fully_busy_cycles            27                       # cycles for which number of transistions == max transitions
system.ruby.l1_cntrl2.mandatoryQueue.avg_buf_msgs     0.366503                       # Average number of messages in buffer
system.ruby.l1_cntrl2.mandatoryQueue.avg_stall_time  3212.592284                       # Average number of cycles messages are stalled in this MB
system.ruby.l1_cntrl2.net0From.avg_buf_msgs    62.136234                       # Average number of messages in buffer
system.ruby.l1_cntrl2.net0From.avg_stall_time 13797.534175                       # Average number of cycles messages are stalled in this MB
system.ruby.l1_cntrl2.net1From.avg_buf_msgs     0.000997                       # Average number of messages in buffer
system.ruby.l1_cntrl2.net1From.avg_stall_time 16652.630012                       # Average number of cycles messages are stalled in this MB
system.ruby.l1_cntrl2.net2From.avg_buf_msgs     0.000978                       # Average number of messages in buffer
system.ruby.l1_cntrl2.net2From.avg_stall_time  6523.047989                       # Average number of cycles messages are stalled in this MB
system.ruby.l1_cntrl2.reqTo.avg_buf_msgs     0.004391                       # Average number of messages in buffer
system.ruby.l1_cntrl2.reqTo.avg_stall_time   500.000003                       # Average number of cycles messages are stalled in this MB
system.ruby.l1_cntrl2.respFrom.avg_buf_msgs     0.000029                       # Average number of messages in buffer
system.ruby.l1_cntrl2.respFrom.avg_stall_time 14433.387496                       # Average number of cycles messages are stalled in this MB
system.ruby.l1_cntrl2.respTo.avg_buf_msgs     0.000054                       # Average number of messages in buffer
system.ruby.l1_cntrl2.respTo.avg_stall_time   604.200124                       # Average number of cycles messages are stalled in this MB
system.ruby.l1_cntrl3.cache.demand_accesses            0                       # Number of cache demand accesses
system.ruby.l1_cntrl3.cache.demand_hits             0                       # Number of cache demand hits
system.ruby.l1_cntrl3.cache.demand_misses            0                       # Number of cache demand misses
system.ruby.l1_cntrl3.fully_busy_cycles            30                       # cycles for which number of transistions == max transitions
system.ruby.l1_cntrl3.mandatoryQueue.avg_buf_msgs     0.365665                       # Average number of messages in buffer
system.ruby.l1_cntrl3.mandatoryQueue.avg_stall_time  4199.804388                       # Average number of cycles messages are stalled in this MB
system.ruby.l1_cntrl3.net0From.avg_buf_msgs    49.480049                       # Average number of messages in buffer
system.ruby.l1_cntrl3.net0From.avg_stall_time 14504.020749                       # Average number of cycles messages are stalled in this MB
system.ruby.l1_cntrl3.net1From.avg_buf_msgs     0.000878                       # Average number of messages in buffer
system.ruby.l1_cntrl3.net1From.avg_stall_time 16528.609405                       # Average number of cycles messages are stalled in this MB
system.ruby.l1_cntrl3.net2From.avg_buf_msgs     0.002216                       # Average number of messages in buffer
system.ruby.l1_cntrl3.net2From.avg_stall_time  6569.709280                       # Average number of cycles messages are stalled in this MB
system.ruby.l1_cntrl3.reqTo.avg_buf_msgs     0.006562                       # Average number of messages in buffer
system.ruby.l1_cntrl3.reqTo.avg_stall_time   499.974904                       # Average number of cycles messages are stalled in this MB
system.ruby.l1_cntrl3.respFrom.avg_buf_msgs     0.000029                       # Average number of messages in buffer
system.ruby.l1_cntrl3.respFrom.avg_stall_time 14496.120162                       # Average number of cycles messages are stalled in this MB
system.ruby.l1_cntrl3.respTo.avg_buf_msgs     0.000045                       # Average number of messages in buffer
system.ruby.l1_cntrl3.respTo.avg_stall_time   634.989806                       # Average number of cycles messages are stalled in this MB
system.ruby.latency_hist_seqr::bucket_size            1                      
system.ruby.latency_hist_seqr::max_bucket            9                      
system.ruby.latency_hist_seqr::samples     3885799991                      
system.ruby.latency_hist_seqr            |  3885799991    100.00%    100.00% |           0      0.00%    100.00% |           0      0.00%    100.00% |           0      0.00%    100.00% |           0      0.00%    100.00% |           0      0.00%    100.00% |           0      0.00%    100.00% |           0      0.00%    100.00% |           0      0.00%    100.00% |           0      0.00%    100.00%
system.ruby.latency_hist_seqr::total       3885799991                      
system.ruby.miss_latency_hist_seqr::bucket_size            1                      
system.ruby.miss_latency_hist_seqr::max_bucket            9                      
system.ruby.miss_latency_hist_seqr::samples     34463996                      
system.ruby.miss_latency_hist_seqr       |    34463996    100.00%    100.00% |           0      0.00%    100.00% |           0      0.00%    100.00% |           0      0.00%    100.00% |           0      0.00%    100.00% |           0      0.00%    100.00% |           0      0.00%    100.00% |           0      0.00%    100.00% |           0      0.00%    100.00% |           0      0.00%    100.00%
system.ruby.miss_latency_hist_seqr::total     34463996                      
system.ruby.network.average_flit_latency    17.014628                      
system.ruby.network.average_flit_network_latency    12.642806                      
system.ruby.network.average_flit_queueing_latency     4.371822                      
system.ruby.network.average_flit_vnet_latency |   14.421649                       |   15.025113                       |    5.034761                       |   15.593345                       |   10.446006                      
system.ruby.network.average_flit_vqueue_latency |    6.440446                       |    6.004733                       |    6.000001                       |    1.305006                       |    1.029932                      
system.ruby.network.average_hops             1.007099                      
system.ruby.network.average_packet_latency    16.107316                      
system.ruby.network.average_packet_network_latency    12.504050                      
system.ruby.network.average_packet_queueing_latency     3.603267                      
system.ruby.network.average_packet_vnet_latency |   18.144192                       |   25.039133                       |    5.034761                       |   25.641640                       |    8.858524                      
system.ruby.network.average_packet_vqueue_latency |    6.315958                       |    6.004733                       |    6.000001                       |    1.305006                       |    1.046058                      
system.ruby.network.avg_link_utilization     0.295730                      
system.ruby.network.avg_vc_load          |    0.085802     29.01%     29.01% |    0.009947      3.36%     32.38% |    0.009725      3.29%     35.67% |    0.009723      3.29%     38.95% |    0.043069     14.56%     53.52% |    0.004854      1.64%     55.16% |    0.004791      1.62%     56.78% |    0.004791      1.62%     58.40% |    0.011694      3.95%     62.35% |    0.001335      0.45%     62.80% |    0.001313      0.44%     63.25% |    0.001309      0.44%     63.69% |    0.001850      0.63%     64.32% |    0.000361      0.12%     64.44% |    0.000213      0.07%     64.51% |    0.000201      0.07%     64.58% |    0.077351     26.16%     90.73% |    0.009949      3.36%     94.10% |    0.008744      2.96%     97.06% |    0.008709      2.94%    100.00%
system.ruby.network.avg_vc_load::total       0.295730                      
system.ruby.network.ext_in_link_utilization    315938471                      
system.ruby.network.ext_out_link_utilization    315938470                      
system.ruby.network.flit_network_latency |  1774893281                       |   924867834                       |    84099445                       |    40253519                       |  1170234742                      
system.ruby.network.flit_queueing_latency |   792635104                       |   369620112                       |   100222581                       |     3368815                       |   115380177                      
system.ruby.network.flits_injected       |   123071456     38.95%     38.95% |    61554800     19.48%     58.44% |    16703761      5.29%     63.72% |     2581455      0.82%     64.54% |   112026999     35.46%    100.00%
system.ruby.network.flits_injected::total    315938471                      
system.ruby.network.flits_received       |   123071456     38.95%     38.95% |    61554800     19.48%     58.44% |    16703760      5.29%     63.72% |     2581455      0.82%     64.54% |   112026999     35.46%    100.00%
system.ruby.network.flits_received::total    315938470                      
system.ruby.network.int_link_utilization    318181299                      
system.ruby.network.packet_network_latency |   626214431                       |   308257464                       |    84099445                       |    13238548                       |   561315633                      
system.ruby.network.packet_queueing_latency |   217984036                       |    73924432                       |   100222581                       |      673763                       |    66282921                      
system.ruby.network.packets_injected     |    34513216     27.09%     27.09% |    12311028      9.66%     36.75% |    16703761     13.11%     49.86% |      516291      0.41%     50.27% |    63364467     49.73%    100.00%
system.ruby.network.packets_injected::total    127408763                      
system.ruby.network.packets_received     |    34513216     27.09%     27.09% |    12311028      9.66%     36.75% |    16703760     13.11%     49.86% |      516291      0.41%     50.27% |    63364467     49.73%    100.00%
system.ruby.network.packets_received::total    127408762                      
system.ruby.network.routers0.buffer_reads    153739865                      
system.ruby.network.routers0.buffer_writes    153739865                      
system.ruby.network.routers0.crossbar_activity    153739865                      
system.ruby.network.routers0.sw_input_arbiter_activity    154504897                      
system.ruby.network.routers0.sw_output_arbiter_activity    153739865                      
system.ruby.network.routers1.buffer_reads    157826125                      
system.ruby.network.routers1.buffer_writes    157826125                      
system.ruby.network.routers1.crossbar_activity    157826125                      
system.ruby.network.routers1.sw_input_arbiter_activity    158105975                      
system.ruby.network.routers1.sw_output_arbiter_activity    157826125                      
system.ruby.network.routers2.buffer_reads    152345322                      
system.ruby.network.routers2.buffer_writes    152345322                      
system.ruby.network.routers2.crossbar_activity    152345322                      
system.ruby.network.routers2.sw_input_arbiter_activity    152723963                      
system.ruby.network.routers2.sw_output_arbiter_activity    152345322                      
system.ruby.network.routers3.buffer_reads    170208458                      
system.ruby.network.routers3.buffer_writes    170208458                      
system.ruby.network.routers3.crossbar_activity    170208458                      
system.ruby.network.routers3.sw_input_arbiter_activity    170488743                      
system.ruby.network.routers3.sw_output_arbiter_activity    170208458                      
system.ruby.outstanding_req_hist_seqr::bucket_size            1                      
system.ruby.outstanding_req_hist_seqr::max_bucket            9                      
system.ruby.outstanding_req_hist_seqr::samples   3885799992                      
system.ruby.outstanding_req_hist_seqr::mean     1.000147                      
system.ruby.outstanding_req_hist_seqr::gmean     1.000102                      
system.ruby.outstanding_req_hist_seqr::stdev     0.012110                      
system.ruby.outstanding_req_hist_seqr    |           0      0.00%      0.00% |  3885230089     99.99%     99.99% |      569903      0.01%    100.00% |           0      0.00%    100.00% |           0      0.00%    100.00% |           0      0.00%    100.00% |           0      0.00%    100.00% |           0      0.00%    100.00% |           0      0.00%    100.00% |           0      0.00%    100.00%
system.ruby.outstanding_req_hist_seqr::total   3885799992                      
system.switch_cpus0.Branches                 73810570                       # Number of branches fetched
system.switch_cpus0.committedInsts          562141540                       # Number of instructions committed
system.switch_cpus0.committedOps            880218580                       # Number of ops (including micro ops) committed
system.switch_cpus0.dtb.rdAccesses          163059303                       # TLB accesses on read requests
system.switch_cpus0.dtb.rdMisses               433557                       # TLB misses on read requests
system.switch_cpus0.dtb.wrAccesses           87276621                       # TLB accesses on write requests
system.switch_cpus0.dtb.wrMisses               115016                       # TLB misses on write requests
system.switch_cpus0.idle_fraction            0.085790                       # Percentage of idle cycles
system.switch_cpus0.itb.rdAccesses                  0                       # TLB accesses on read requests
system.switch_cpus0.itb.rdMisses                    0                       # TLB misses on read requests
system.switch_cpus0.itb.wrAccesses          771845248                       # TLB accesses on write requests
system.switch_cpus0.itb.wrMisses                76374                       # TLB misses on write requests
system.switch_cpus0.kern.inst.arm                   0                       # number of arm instructions executed
system.switch_cpus0.kern.inst.quiesce               0                       # number of quiesce instructions executed
system.switch_cpus0.not_idle_fraction        0.914210                       # Percentage of non-idle cycles
system.switch_cpus0.numCycles              3212586743                       # number of cpu cycles simulated
system.switch_cpus0.numWorkItemsCompleted            0                       # number of work items this cpu completed
[...]
system.mem_ctrls1.llc.tags.occ_percent::.ruby.dir_cntrl1     0.623817                       # Average percentage of cache occupancy
system.mem_ctrls1.llc.tags.occ_percent::total     0.623817                       # Average percentage of cache occupancy
system.mem_ctrls1.llc.tags.occ_task_id_blocks::1024       200961                       # Occupied blocks per task id
system.mem_ctrls1.llc.tags.age_task_id_blocks_1024::0            4                       # Occupied blocks per task id
system.mem_ctrls1.llc.tags.age_task_id_blocks_1024::1            1                       # Occupied blocks per task id
system.mem_ctrls1.llc.tags.age_task_id_blocks_1024::2            3                       # Occupied blocks per task id
system.mem_ctrls1.llc.tags.age_task_id_blocks_1024::4       200953                       # Occupied blocks per task id
system.mem_ctrls1.llc.tags.occ_task_id_percent::1024     0.766605                       # Percentage of cache occupancy per task id
system.mem_ctrls1.llc.tags.tag_accesses     190146424                       # Number of tag accesses
system.mem_ctrls1.llc.tags.data_accesses     11871569                       # Number of data accesses
system.mem_ctrls1.llc.tags.power_state.pwrStateResidencyTicks::UNDEFINED 100362914616001                       # Cumulative time (in ticks) in various power states
system.mem_ctrls1.rank1.actEnergy           105871920                       # Energy for activate commands per rank (pJ)
system.mem_ctrls1.rank1.preEnergy            56268465                       # Energy for precharge commands per rank (pJ)
system.mem_ctrls1.rank1.readEnergy          722189580                       # Energy for read commands per rank (pJ)
system.mem_ctrls1.rank1.writeEnergy            511560                       # Energy for write commands per rank (pJ)
system.mem_ctrls1.rank1.refreshEnergy    126799002720.000015                       # Energy for refresh commands per rank (pJ)
system.mem_ctrls1.rank1.actBackEnergy     52158697020                       # Energy for active background per rank (pJ)
system.mem_ctrls1.rank1.preBackEnergy    572893558080                       # Energy for precharge background per rank (pJ)
system.mem_ctrls1.rank1.actPowerDownEnergy            0                       # Energy for active power-down per rank (pJ)
system.mem_ctrls1.rank1.prePowerDownEnergy            0                       # Energy for precharge power-down per rank (pJ)
system.mem_ctrls1.rank1.selfRefreshEnergy            0                       # Energy for self refresh per rank (pJ)
system.mem_ctrls1.rank1.totalEnergy      752736099345                       # Total energy per rank (pJ)
system.mem_ctrls1.rank1.averagePower       468.616808                       # Core power per rank (mW)
system.mem_ctrls1.rank1.totalIdleTime               0                       # Total Idle time Per DRAM Rank
system.mem_ctrls1.rank1.memoryStateTime::IDLE 1488898186750                       # Time in different power states
system.mem_ctrls1.rank1.memoryStateTime::REF  53637480000                       # Time in different power states
system.mem_ctrls1.rank1.memoryStateTime::SREF            0                       # Time in different power states
system.mem_ctrls1.rank1.memoryStateTime::PRE_PDN            0                       # Time in different power states
system.mem_ctrls1.rank1.memoryStateTime::ACT  63757763251                       # Time in different power states
system.mem_ctrls1.rank1.memoryStateTime::ACT_PDN            0                       # Time in different power states
system.mem_ctrls1.rank0.actEnergy           107556960                       # Energy for activate commands per rank (pJ)
system.mem_ctrls1.rank0.preEnergy            57164085                       # Energy for precharge commands per rank (pJ)
system.mem_ctrls1.rank0.readEnergy          715228080                       # Energy for read commands per rank (pJ)
system.mem_ctrls1.rank0.writeEnergy            146160                       # Energy for write commands per rank (pJ)
system.mem_ctrls1.rank0.refreshEnergy    126799002720.000015                       # Energy for refresh commands per rank (pJ)
system.mem_ctrls1.rank0.actBackEnergy     52801035720                       # Energy for active background per rank (pJ)
system.mem_ctrls1.rank0.preBackEnergy    572352601440                       # Energy for precharge background per rank (pJ)
system.mem_ctrls1.rank0.actPowerDownEnergy            0                       # Energy for active power-down per rank (pJ)
system.mem_ctrls1.rank0.prePowerDownEnergy            0                       # Energy for precharge power-down per rank (pJ)
system.mem_ctrls1.rank0.selfRefreshEnergy            0                       # Energy for self refresh per rank (pJ)
system.mem_ctrls1.rank0.totalEnergy      752832735165                       # Total energy per rank (pJ)
system.mem_ctrls1.rank0.averagePower       468.676968                       # Core power per rank (mW)
system.mem_ctrls1.rank0.totalIdleTime               0                       # Total Idle time Per DRAM Rank
system.mem_ctrls1.rank0.memoryStateTime::IDLE 1487484909000                       # Time in different power states
system.mem_ctrls1.rank0.memoryStateTime::REF  53637480000                       # Time in different power states
system.mem_ctrls1.rank0.memoryStateTime::SREF            0                       # Time in different power states
system.mem_ctrls1.rank0.memoryStateTime::PRE_PDN            0                       # Time in different power states
system.mem_ctrls1.rank0.memoryStateTime::ACT  65171041001                       # Time in different power states
system.mem_ctrls1.rank0.memoryStateTime::ACT_PDN            0                       # Time in different power states
system.mem_ctrls1.power_state.pwrStateResidencyTicks::UNDEFINED 100362914616001                       # Cumulative time (in ticks) in various power states
system.cpu_voltage_domain.voltage                   1                       # Voltage in Volts
system.iobus.trans_dist::ReadReq                 9141                       # Transaction distribution
system.iobus.trans_dist::ReadResp                9141                       # Transaction distribution
system.iobus.trans_dist::WriteReq               55757                       # Transaction distribution
system.iobus.trans_dist::WriteResp              55757                       # Transaction distribution
system.iobus.pkt_count_system.pc.south_bridge.io_apic.int_master::system.ruby.l1_cntrl1.sequencer.pio-slave-port          672                       # Packet count per connected master and slave (bytes)
system.iobus.pkt_count_system.pc.south_bridge.io_apic.int_master::total          672                       # Packet count per connected master and slave (bytes)
system.iobus.pkt_count_system.ruby.l1_cntrl0.sequencer.mem-master-port::system.pc.south_bridge.ide.pio          136                       # Packet count per connected master and slave (bytes)
system.iobus.pkt_count_system.ruby.l1_cntrl0.sequencer.mem-master-port::system.ruby.l1_cntrl0.sequencer.pio-slave-port        19626                       # Packet count per connected master and slave (bytes)
system.iobus.pkt_count_system.ruby.l1_cntrl0.sequencer.mem-master-port::system.ruby.l1_cntrl1.sequencer.pio-slave-port         3106                       # Packet count per connected master and slave (bytes)
system.iobus.pkt_count_system.ruby.l1_cntrl0.sequencer.mem-master-port::system.ruby.l1_cntrl2.sequencer.pio-slave-port         3028                       # Packet count per connected master and slave (bytes)
system.iobus.pkt_count_system.ruby.l1_cntrl0.sequencer.mem-master-port::system.ruby.l1_cntrl3.sequencer.pio-slave-port         3240                       # Packet count per connected master and slave (bytes)
system.iobus.pkt_count_system.ruby.l1_cntrl0.sequencer.mem-master-port::total        29136                       # Packet count per connected master and slave (bytes)
system.iobus.pkt_count_system.ruby.l1_cntrl1.sequencer.mem-master-port::system.pc.south_bridge.ide.pio         3824                       # Packet count per connected master and slave (bytes)
system.iobus.pkt_count_system.ruby.l1_cntrl1.sequencer.mem-master-port::system.pc.com_1.pio          182                       # Packet count per connected master and slave (bytes)
system.iobus.pkt_count_system.ruby.l1_cntrl1.sequencer.mem-master-port::system.ruby.l1_cntrl0.sequencer.pio-slave-port         3116                       # Packet count per connected master and slave (bytes)
system.iobus.pkt_count_system.ruby.l1_cntrl1.sequencer.mem-master-port::system.ruby.l1_cntrl1.sequencer.pio-slave-port        20112                       # Packet count per connected master and slave (bytes)
system.iobus.pkt_count_system.ruby.l1_cntrl1.sequencer.mem-master-port::system.ruby.l1_cntrl2.sequencer.pio-slave-port         3072                       # Packet count per connected master and slave (bytes)
system.iobus.pkt_count_system.ruby.l1_cntrl1.sequencer.mem-master-port::system.ruby.l1_cntrl3.sequencer.pio-slave-port         3218                       # Packet count per connected master and slave (bytes)
system.iobus.pkt_count_system.ruby.l1_cntrl1.sequencer.mem-master-port::total        33524                       # Packet count per connected master and slave (bytes)
system.iobus.pkt_count_system.ruby.l1_cntrl2.sequencer.mem-master-port::system.pc.south_bridge.ide.pio        10438                       # Packet count per connected master and slave (bytes)
system.iobus.pkt_count_system.ruby.l1_cntrl2.sequencer.mem-master-port::system.ruby.l1_cntrl0.sequencer.pio-slave-port         3196                       # Packet count per connected master and slave (bytes)
system.iobus.pkt_count_system.ruby.l1_cntrl2.sequencer.mem-master-port::system.ruby.l1_cntrl1.sequencer.pio-slave-port         3148                       # Packet count per connected master and slave (bytes)
system.iobus.pkt_count_system.ruby.l1_cntrl2.sequencer.mem-master-port::system.ruby.l1_cntrl2.sequencer.pio-slave-port        19282                       # Packet count per connected master and slave (bytes)
system.iobus.pkt_count_system.ruby.l1_cntrl2.sequencer.mem-master-port::system.ruby.l1_cntrl3.sequencer.pio-slave-port         3290                       # Packet count per connected master and slave (bytes)
system.iobus.pkt_count_system.ruby.l1_cntrl2.sequencer.mem-master-port::total        39354                       # Packet count per connected master and slave (bytes)
system.iobus.pkt_count_system.ruby.l1_cntrl3.sequencer.mem-master-port::system.pc.com_1.pio            2                       # Packet count per connected master and slave (bytes)
system.iobus.pkt_count_system.ruby.l1_cntrl3.sequencer.mem-master-port::system.ruby.l1_cntrl0.sequencer.pio-slave-port         2746                       # Packet count per connected master and slave (bytes)
system.iobus.pkt_count_system.ruby.l1_cntrl3.sequencer.mem-master-port::system.ruby.l1_cntrl1.sequencer.pio-slave-port         2722                       # Packet count per connected master and slave (bytes)
system.iobus.pkt_count_system.ruby.l1_cntrl3.sequencer.mem-master-port::system.ruby.l1_cntrl2.sequencer.pio-slave-port         2638                       # Packet count per connected master and slave (bytes)
system.iobus.pkt_count_system.ruby.l1_cntrl3.sequencer.mem-master-port::system.ruby.l1_cntrl3.sequencer.pio-slave-port        19002                       # Packet count per connected master and slave (bytes)
system.iobus.pkt_count_system.ruby.l1_cntrl3.sequencer.mem-master-port::total        27110                       # Packet count per connected master and slave (bytes)
system.iobus.pkt_count::total                  129796                       # Packet count per connected master and slave (bytes)
system.iobus.pkt_size_system.pc.south_bridge.io_apic.int_master::system.ruby.l1_cntrl1.sequencer.pio-slave-port         1344                       # Cumulative packet size per connected master and slave (bytes)
system.iobus.pkt_size_system.pc.south_bridge.io_apic.int_master::total         1344                       # Cumulative packet size per connected master and slave (bytes)
system.iobus.pkt_size_system.ruby.l1_cntrl0.sequencer.mem-master-port::system.pc.south_bridge.ide.pio           80                       # Cumulative packet size per connected master and slave (bytes)
system.iobus.pkt_size_system.ruby.l1_cntrl0.sequencer.mem-master-port::system.ruby.l1_cntrl0.sequencer.pio-slave-port        39252                       # Cumulative packet size per connected master and slave (bytes)
system.iobus.pkt_size_system.ruby.l1_cntrl0.sequencer.mem-master-port::system.ruby.l1_cntrl1.sequencer.pio-slave-port         6212                       # Cumulative packet size per connected master and slave (bytes)
system.iobus.pkt_size_system.ruby.l1_cntrl0.sequencer.mem-master-port::system.ruby.l1_cntrl2.sequencer.pio-slave-port         6056                       # Cumulative packet size per connected master and slave (bytes)
system.iobus.pkt_size_system.ruby.l1_cntrl0.sequencer.mem-master-port::system.ruby.l1_cntrl3.sequencer.pio-slave-port         6480                       # Cumulative packet size per connected master and slave (bytes)
system.iobus.pkt_size_system.ruby.l1_cntrl0.sequencer.mem-master-port::total        58080                       # Cumulative packet size per connected master and slave (bytes)
system.iobus.pkt_size_system.ruby.l1_cntrl1.sequencer.mem-master-port::system.pc.south_bridge.ide.pio         1918                       # Cumulative packet size per connected master and slave (bytes)
system.iobus.pkt_size_system.ruby.l1_cntrl1.sequencer.mem-master-port::system.pc.com_1.pio           91                       # Cumulative packet size per connected master and slave (bytes)
system.iobus.pkt_size_system.ruby.l1_cntrl1.sequencer.mem-master-port::system.ruby.l1_cntrl0.sequencer.pio-slave-port         6232                       # Cumulative packet size per connected master and slave (bytes)
system.iobus.pkt_size_system.ruby.l1_cntrl1.sequencer.mem-master-port::system.ruby.l1_cntrl1.sequencer.pio-slave-port        40224                       # Cumulative packet size per connected master and slave (bytes)
system.iobus.pkt_size_system.ruby.l1_cntrl1.sequencer.mem-master-port::system.ruby.l1_cntrl2.sequencer.pio-slave-port         6144                       # Cumulative packet size per connected master and slave (bytes)
system.iobus.pkt_size_system.ruby.l1_cntrl1.sequencer.mem-master-port::system.ruby.l1_cntrl3.sequencer.pio-slave-port         6436                       # Cumulative packet size per connected master and slave (bytes)
system.iobus.pkt_size_system.ruby.l1_cntrl1.sequencer.mem-master-port::total        61045                       # Cumulative packet size per connected master and slave (bytes)
system.iobus.pkt_size_system.ruby.l1_cntrl2.sequencer.mem-master-port::system.pc.south_bridge.ide.pio         6140                       # Cumulative packet size per connected master and slave (bytes)
system.iobus.pkt_size_system.ruby.l1_cntrl2.sequencer.mem-master-port::system.ruby.l1_cntrl0.sequencer.pio-slave-port         6392                       # Cumulative packet size per connected master and slave (bytes)
system.iobus.pkt_size_system.ruby.l1_cntrl2.sequencer.mem-master-port::system.ruby.l1_cntrl1.sequencer.pio-slave-port         6296                       # Cumulative packet size per connected master and slave (bytes)
system.iobus.pkt_size_system.ruby.l1_cntrl2.sequencer.mem-master-port::system.ruby.l1_cntrl2.sequencer.pio-slave-port        38564                       # Cumulative packet size per connected master and slave (bytes)
system.iobus.pkt_size_system.ruby.l1_cntrl2.sequencer.mem-master-port::system.ruby.l1_cntrl3.sequencer.pio-slave-port         6580                       # Cumulative packet size per connected master and slave (bytes)
system.iobus.pkt_size_system.ruby.l1_cntrl2.sequencer.mem-master-port::total        63972                       # Cumulative packet size per connected master and slave (bytes)
system.iobus.pkt_size_system.ruby.l1_cntrl3.sequencer.mem-master-port::system.pc.com_1.pio            1                       # Cumulative packet size per connected master and slave (bytes)
system.iobus.pkt_size_system.ruby.l1_cntrl3.sequencer.mem-master-port::system.ruby.l1_cntrl0.sequencer.pio-slave-port         5492                       # Cumulative packet size per connected master and slave (bytes)
system.iobus.pkt_size_system.ruby.l1_cntrl3.sequencer.mem-master-port::system.ruby.l1_cntrl1.sequencer.pio-slave-port         5444                       # Cumulative packet size per connected master and slave (bytes)
system.iobus.pkt_size_system.ruby.l1_cntrl3.sequencer.mem-master-port::system.ruby.l1_cntrl2.sequencer.pio-slave-port         5276                       # Cumulative packet size per connected master and slave (bytes)
system.iobus.pkt_size_system.ruby.l1_cntrl3.sequencer.mem-master-port::system.ruby.l1_cntrl3.sequencer.pio-slave-port        38004                       # Cumulative packet size per connected master and slave (bytes)
system.iobus.pkt_size_system.ruby.l1_cntrl3.sequencer.mem-master-port::total        54217                       # Cumulative packet size per connected master and slave (bytes)
system.iobus.pkt_size::total                   238658                       # Cumulative packet size per connected master and slave (bytes)
system.iobus.reqLayer2.occupancy             12160500                       # Layer occupancy (ticks)
system.iobus.reqLayer2.utilization                0.0                       # Layer utilization (%)
system.iobus.power_state.pwrStateResidencyTicks::UNDEFINED 100362914616001                       # Cumulative time (in ticks) in various power states
system.iobus.reqLayer19.occupancy            32235364                       # Layer occupancy (ticks)
system.iobus.reqLayer19.utilization               0.0                       # Layer utilization (%)
system.iobus.reqLayer17.occupancy            32991191                       # Layer occupancy (ticks)
system.iobus.reqLayer17.utilization               0.0                       # Layer utilization (%)
system.iobus.reqLayer12.occupancy              117000                       # Layer occupancy (ticks)
system.iobus.reqLayer12.utilization               0.0                       # Layer utilization (%)
system.iobus.reqLayer18.occupancy            34358420                       # Layer occupancy (ticks)
system.iobus.reqLayer18.utilization               0.0                       # Layer utilization (%)
system.iobus.respLayer9.occupancy            19110500                       # Layer occupancy (ticks)
system.iobus.respLayer9.utilization               0.0                       # Layer utilization (%)
system.iobus.respLayer5.occupancy            24111999                       # Layer occupancy (ticks)
system.iobus.respLayer5.utilization               0.0                       # Layer utilization (%)
system.iobus.respLayer7.occupancy            26715000                       # Layer occupancy (ticks)
system.iobus.respLayer7.utilization               0.0                       # Layer utilization (%)
system.iobus.respLayer0.occupancy              588187                       # Layer occupancy (ticks)
system.iobus.respLayer0.utilization               0.0                       # Layer utilization (%)
system.iobus.respLayer3.occupancy            20496500                       # Layer occupancy (ticks)
system.iobus.respLayer3.utilization               0.0                       # Layer utilization (%)
system.iobus.reqLayer20.occupancy            33628650                       # Layer occupancy (ticks)
system.iobus.reqLayer20.utilization               0.0                       # Layer utilization (%)

---------- End Simulation Statistics   ----------
