
---------- Begin Simulation Statistics ----------
final_tick                               102467580004001                       # Number of ticks from beginning of simulation (restored from checkpoints and never reset)
host_inst_rate                                2618111                       # Simulator instruction rate (inst/s)
host_mem_usage                                1727484                       # Number of bytes of host memory used
host_op_rate                                  2699555                       # Simulator op (including micro ops) rate (op/s)
host_seconds                                  2485.42                       # Real time elapsed on the host
host_tick_rate                              109992306                       # Simulator tick rate (ticks/s)
sim_freq                                 1000000000000                       # Frequency of simulated ticks
sim_insts                                  6507104064                       # Number of instructions simulated
sim_ops                                    6709527201                       # Number of ops (including micro ops) simulated
sim_seconds                                  0.273377                       # Number of seconds simulated
sim_ticks                                273377044501                       # Number of ticks simulated
system.cpu0.committedInsts                          0                       # Number of instructions committed
system.cpu0.dtb.rdAccesses                          0                       # TLB accesses on read requests
system.cpu0.dtb.rdMisses                            0                       # TLB misses on read requests
system.cpu0.dtb.wrAccesses                          0                       # TLB accesses on write requests
system.cpu0.dtb.wrMisses                            0                       # TLB misses on write requests
system.cpu0.itb.rdAccesses                          0                       # TLB accesses on read requests
system.cpu0.itb.rdMisses                            0                       # TLB misses on read requests
system.cpu0.itb.wrAccesses                          0                       # TLB accesses on write requests
system.cpu0.itb.wrMisses                            0                       # TLB misses on write requests
system.cpu0.kern.inst.arm                           0                       # number of arm instructions executed
system.cpu0.kern.inst.quiesce                       0                       # number of quiesce instructions executed
system.cpu0.numCoalescedMMIO                        0                       # number of coalesced memory mapped IO requests
system.cpu0.numCycles                               0                       # number of cpu cycles simulated
system.cpu0.numExitSignal                           0                       # exits due to signal delivery
system.cpu0.numHalt                                 0                       # number of VM exits due to wait for interrupt instructions
system.cpu0.numHypercalls                           0                       # number of hypercalls
system.cpu0.numIO                                   0                       # number of VM exits due to legacy IO
system.cpu0.numInterrupts                           0                       # number of interrupts delivered
system.cpu0.numMMIO                                 0                       # number of VM exits due to memory mapped IO
system.cpu0.numVMExits                              0                       # total number of KVM exits
system.cpu0.numVMHalfEntries                        0                       # number of KVM entries to finalize pending operations
system.cpu0.numWorkItemsCompleted                   0                       # number of work items this cpu completed
system.cpu0.numWorkItemsStarted                     0                       # number of work items this cpu started
system.cpu1.committedInsts                          0                       # Number of instructions committed
system.cpu1.dtb.rdAccesses                          0                       # TLB accesses on read requests
system.cpu1.dtb.rdMisses                            0                       # TLB misses on read requests
system.cpu1.dtb.wrAccesses                          0                       # TLB accesses on write requests
system.cpu1.dtb.wrMisses                            0                       # TLB misses on write requests
system.cpu1.itb.rdAccesses                          0                       # TLB accesses on read requests
system.cpu1.itb.rdMisses                            0                       # TLB misses on read requests
system.cpu1.itb.wrAccesses                          0                       # TLB accesses on write requests
system.cpu1.itb.wrMisses                            0                       # TLB misses on write requests
system.cpu1.kern.inst.arm                           0                       # number of arm instructions executed
system.cpu1.kern.inst.quiesce                       0                       # number of quiesce instructions executed
system.cpu1.numCoalescedMMIO                        0                       # number of coalesced memory mapped IO requests
system.cpu1.numCycles                               0                       # number of cpu cycles simulated
system.cpu1.numExitSignal                           0                       # exits due to signal delivery
system.cpu1.numHalt                                 0                       # number of VM exits due to wait for interrupt instructions
system.cpu1.numHypercalls                           0                       # number of hypercalls
system.cpu1.numIO                                   0                       # number of VM exits due to legacy IO
system.cpu1.numInterrupts                           0                       # number of interrupts delivered
system.cpu1.numMMIO                                 0                       # number of VM exits due to memory mapped IO
system.cpu1.numVMExits                              0                       # total number of KVM exits
system.cpu1.numVMHalfEntries                        0                       # number of KVM entries to finalize pending operations
system.cpu1.numWorkItemsCompleted                   0                       # number of work items this cpu completed
system.cpu1.numWorkItemsStarted                     0                       # number of work items this cpu started
system.cpu2.committedInsts                          0                       # Number of instructions committed
system.cpu2.dtb.rdAccesses                          0                       # TLB accesses on read requests
system.cpu2.dtb.rdMisses                            0                       # TLB misses on read requests
system.cpu2.dtb.wrAccesses                          0                       # TLB accesses on write requests
system.cpu2.dtb.wrMisses                            0                       # TLB misses on write requests
system.cpu2.itb.rdAccesses                          0                       # TLB accesses on read requests
system.cpu2.itb.rdMisses                            0                       # TLB misses on read requests
system.cpu2.itb.wrAccesses                          0                       # TLB accesses on write requests
system.cpu2.itb.wrMisses                            0                       # TLB misses on write requests
system.cpu2.kern.inst.arm                           0                       # number of arm instructions executed
system.cpu2.kern.inst.quiesce                       0                       # number of quiesce instructions executed
system.cpu2.numCoalescedMMIO                        0                       # number of coalesced memory mapped IO requests
system.cpu2.numCycles                               0                       # number of cpu cycles simulated
system.cpu2.numExitSignal                           0                       # exits due to signal delivery
system.cpu2.numHalt                                 0                       # number of VM exits due to wait for interrupt instructions
system.cpu2.numHypercalls                           0                       # number of hypercalls
system.cpu2.numIO                                   0                       # number of VM exits due to legacy IO
system.cpu2.numInterrupts                           0                       # number of interrupts delivered
system.cpu2.numMMIO                                 0                       # number of VM exits due to memory mapped IO
system.cpu2.numVMExits                              0                       # total number of KVM exits
system.cpu2.numVMHalfEntries                        0                       # number of KVM entries to finalize pending operations
system.cpu2.numWorkItemsCompleted                   0                       # number of work items this cpu completed
system.cpu2.numWorkItemsStarted                     0                       # number of work items this cpu started
system.cpu3.committedInsts                          0                       # Number of instructions committed
system.cpu3.dtb.rdAccesses                          0                       # TLB accesses on read requests
system.cpu3.dtb.rdMisses                            0                       # TLB misses on read requests
system.cpu3.dtb.wrAccesses                          0                       # TLB accesses on write requests
system.cpu3.dtb.wrMisses                            0                       # TLB misses on write requests
system.cpu3.itb.rdAccesses                          0                       # TLB accesses on read requests
system.cpu3.itb.rdMisses                            0                       # TLB misses on read requests
system.cpu3.itb.wrAccesses                          0                       # TLB accesses on write requests
system.cpu3.itb.wrMisses                            0                       # TLB misses on write requests
system.cpu3.kern.inst.arm                           0                       # number of arm instructions executed
system.cpu3.kern.inst.quiesce                       0                       # number of quiesce instructions executed
system.cpu3.numCoalescedMMIO                        0                       # number of coalesced memory mapped IO requests
system.cpu3.numCycles                               0                       # number of cpu cycles simulated
system.cpu3.numExitSignal                           0                       # exits due to signal delivery
system.cpu3.numHalt                                 0                       # number of VM exits due to wait for interrupt instructions
system.cpu3.numHypercalls                           0                       # number of hypercalls
system.cpu3.numIO                                   0                       # number of VM exits due to legacy IO
system.cpu3.numInterrupts                           0                       # number of interrupts delivered
system.cpu3.numMMIO                                 0                       # number of VM exits due to memory mapped IO
system.cpu3.numVMExits                              0                       # total number of KVM exits
system.cpu3.numVMHalfEntries                        0                       # number of KVM entries to finalize pending operations
system.cpu3.numWorkItemsCompleted                   0                       # number of work items this cpu completed
system.cpu3.numWorkItemsStarted                     0                       # number of work items this cpu started
system.pc.south_bridge.ide.disks.dma_read_bytes            0                       # Number of bytes transfered via DMA reads (not PRD).
system.pc.south_bridge.ide.disks.dma_read_full_pages            0                       # Number of full page size DMA reads (not PRD).
system.pc.south_bridge.ide.disks.dma_read_txs            0                       # Number of DMA read transactions (not PRD).
system.pc.south_bridge.ide.disks.dma_write_bytes       131072                       # Number of bytes transfered via DMA writes.
system.pc.south_bridge.ide.disks.dma_write_full_pages           32                       # Number of full page size DMA writes.
system.pc.south_bridge.ide.disks.dma_write_txs           32                       # Number of DMA write transactions.
system.ruby.DMA_Controller.I.allocI_load |           3    100.00%    100.00% |           0      0.00%    100.00%
system.ruby.DMA_Controller.I.allocI_load::total            3                      
system.ruby.DMA_Controller.I.allocI_store |        2048    100.00%    100.00% |           0      0.00%    100.00%
system.ruby.DMA_Controller.I.allocI_store::total         2048                      
system.ruby.DMA_Controller.I.deallocfwdfrom_in |        1027    100.00%    100.00% |           0      0.00%    100.00%
system.ruby.DMA_Controller.I.deallocfwdfrom_in::total         1027                      
system.ruby.DMA_Controller.M.allocTBE    |        1033    100.00%    100.00% |           0      0.00%    100.00%
system.ruby.DMA_Controller.M.allocTBE::total         1033                      
system.ruby.DMA_Controller.M.externalstoreMrespfrom_in |        2048    100.00%    100.00% |           0      0.00%    100.00%
system.ruby.DMA_Controller.M.externalstoreMrespfrom_in::total         2048                      
system.ruby.DMA_Controller.M_evict.Stallmandatory_in |       15308    100.00%    100.00% |           0      0.00%    100.00%
system.ruby.DMA_Controller.M_evict.Stallmandatory_in::total        15308                      
system.ruby.DMA_Controller.S.SloadSEvent |           1    100.00%    100.00% |           0      0.00%    100.00%
system.ruby.DMA_Controller.S.SloadSEvent::total            1                      
system.ruby.DMA_Controller.S.allocTBE    |           2    100.00%    100.00% |           0      0.00%    100.00%
system.ruby.DMA_Controller.S.allocTBE::total            2                      
system.ruby.DMA_Controller.S.deallocTBE  |           8    100.00%    100.00% |           0      0.00%    100.00%
system.ruby.DMA_Controller.S.deallocTBE::total            8                      
system.ruby.DMA_Controller.S.externalloadSrespfrom_in |           3    100.00%    100.00% |           0      0.00%    100.00%
system.ruby.DMA_Controller.S.externalloadSrespfrom_in::total            3                      
system.ruby.DMA_Controller.S_evict.Stallmandatory_in |           6    100.00%    100.00% |           0      0.00%    100.00%
system.ruby.DMA_Controller.S_evict.Stallmandatory_in::total            6                      
system.ruby.DMA_Controller.SloadSEvent   |           1    100.00%    100.00% |           0      0.00%    100.00%
system.ruby.DMA_Controller.SloadSEvent::total            1                      
system.ruby.DMA_Controller.Stallmandatory_in |       15314    100.00%    100.00% |           0      0.00%    100.00%
system.ruby.DMA_Controller.Stallmandatory_in::total        15314                      
system.ruby.DMA_Controller.allocI_load   |           3    100.00%    100.00% |           0      0.00%    100.00%
system.ruby.DMA_Controller.allocI_load::total            3                      
system.ruby.DMA_Controller.allocI_store  |        2048    100.00%    100.00% |           0      0.00%    100.00%
system.ruby.DMA_Controller.allocI_store::total         2048                      
system.ruby.DMA_Controller.allocTBE      |        1035    100.00%    100.00% |           0      0.00%    100.00%
system.ruby.DMA_Controller.allocTBE::total         1035                      
system.ruby.DMA_Controller.deallocTBE    |           8    100.00%    100.00% |           0      0.00%    100.00%
system.ruby.DMA_Controller.deallocTBE::total            8                      
system.ruby.DMA_Controller.deallocfwdfrom_in |        1027    100.00%    100.00% |           0      0.00%    100.00%
system.ruby.DMA_Controller.deallocfwdfrom_in::total         1027                      
system.ruby.DMA_Controller.externalloadSrespfrom_in |           3    100.00%    100.00% |           0      0.00%    100.00%
system.ruby.DMA_Controller.externalloadSrespfrom_in::total            3                      
system.ruby.DMA_Controller.externalstoreMrespfrom_in |        2048    100.00%    100.00% |           0      0.00%    100.00%
system.ruby.DMA_Controller.externalstoreMrespfrom_in::total         2048                      
system.ruby.Directory_Controller.I.allocTBE |     1644049     24.56%     24.56% |     1708962     25.53%     50.09% |     1679283     25.09%     75.17% |     1661951     24.83%    100.00%
system.ruby.Directory_Controller.I.allocTBE::total      6694245                      
system.ruby.Directory_Controller.I.deallocTBE |     1643248     24.56%     24.56% |     1708184     25.53%     50.09% |     1678497     25.09%     75.17% |     1661131     24.83%    100.00%
system.ruby.Directory_Controller.I.deallocTBE::total      6691060                      
system.ruby.Directory_Controller.I_GetML1C1C1_0.Stallreqto_in |           4     44.44%     44.44% |           3     33.33%     77.78% |           0      0.00%     77.78% |           2     22.22%    100.00%
system.ruby.Directory_Controller.I_GetML1C1C1_0.Stallreqto_in::total            9                      
system.ruby.Directory_Controller.I_GetSL1C1C1_0.Stallreqto_in |         387     10.33%     10.33% |         291      7.76%     18.09% |        2370     63.23%     81.32% |         700     18.68%    100.00%
system.ruby.Directory_Controller.I_GetSL1C1C1_0.Stallreqto_in::total         3748                      
system.ruby.Directory_Controller.M.allocTBE |      639335     24.34%     24.34% |      708261     26.96%     51.30% |      640823     24.40%     75.70% |      638397     24.30%    100.00%
system.ruby.Directory_Controller.M.allocTBE::total      2626816                      
system.ruby.Directory_Controller.M.deallocTBE |      639729     24.34%     24.34% |      708639     26.96%     51.30% |      641208     24.40%     75.70% |      638801     24.30%    100.00%
system.ruby.Directory_Controller.M.deallocTBE::total      2628377                      
system.ruby.Directory_Controller.M_GetM.Progress |        4644     24.70%     24.70% |        4651     24.74%     49.45% |        4871     25.91%     75.36% |        4632     24.64%    100.00%
system.ruby.Directory_Controller.M_GetM.Progress::total        18798                      
system.ruby.Directory_Controller.M_GetM.Stallreqto_in |           0      0.00%      0.00% |           0      0.00%      0.00% |           1    100.00%    100.00% |           0      0.00%    100.00%
system.ruby.Directory_Controller.M_GetM.Stallreqto_in::total            1                      
system.ruby.Directory_Controller.M_GetS.Progress |        1100     29.67%     29.67% |         757     20.42%     50.08% |        1012     27.29%     77.37% |         839     22.63%    100.00%
system.ruby.Directory_Controller.M_GetS.Progress::total         3708                      
system.ruby.Directory_Controller.M_GetS.Stallreqto_in |          35     53.03%     53.03% |          14     21.21%     74.24% |           7     10.61%     84.85% |          10     15.15%    100.00%
system.ruby.Directory_Controller.M_GetS.Stallreqto_in::total           66                      
system.ruby.Directory_Controller.M_GetS_WBL1C1C1_0.Stallreqto_in |          47     21.96%     21.96% |          28     13.08%     35.05% |         108     50.47%     85.51% |          31     14.49%    100.00%
system.ruby.Directory_Controller.M_GetS_WBL1C1C1_0.Stallreqto_in::total          214                      
system.ruby.Directory_Controller.M_PutML1C1C1_0.Stallreqto_in |           1     14.29%     14.29% |           0      0.00%     14.29% |           6     85.71%    100.00% |           0      0.00%    100.00%
system.ruby.Directory_Controller.M_PutML1C1C1_0.Stallreqto_in::total            7                      
system.ruby.Directory_Controller.Progress |        5744     25.52%     25.52% |        5408     24.03%     49.55% |        5883     26.14%     75.69% |        5471     24.31%    100.00%
system.ruby.Directory_Controller.Progress::total        22506                      
system.ruby.Directory_Controller.S.allocTBE |     2240630     24.28%     24.28% |     2161135     23.41%     47.69% |     2561823     27.75%     75.44% |     2266551     24.56%    100.00%
system.ruby.Directory_Controller.S.allocTBE::total      9230139                      
system.ruby.Directory_Controller.S.deallocTBE |     2241037     24.28%     24.28% |     2161535     23.41%     47.69% |     2562223     27.75%     75.44% |     2266966     24.56%    100.00%
system.ruby.Directory_Controller.S.deallocTBE::total      9231761                      
system.ruby.Directory_Controller.S_GetM.Stallreqto_in |          66     39.76%     39.76% |          51     30.72%     70.48% |          31     18.67%     89.16% |          18     10.84%    100.00%
system.ruby.Directory_Controller.S_GetM.Stallreqto_in::total          166                      
system.ruby.Directory_Controller.S_GetM.allocTBE |         807     25.61%     25.61% |         755     23.96%     49.57% |         871     27.64%     77.21% |         718     22.79%    100.00%
system.ruby.Directory_Controller.S_GetM.allocTBE::total         3151                      
system.ruby.Directory_Controller.S_GetM.deallocTBE |         807     25.61%     25.61% |         755     23.96%     49.57% |         871     27.64%     77.21% |         718     22.79%    100.00%
system.ruby.Directory_Controller.S_GetM.deallocTBE::total         3151                      
system.ruby.Directory_Controller.S_GetML1C1C1_0.Stallreqto_in |           5    100.00%    100.00% |           0      0.00%    100.00% |           0      0.00%    100.00% |           0      0.00%    100.00%
system.ruby.Directory_Controller.S_GetML1C1C1_0.Stallreqto_in::total            5                      
system.ruby.Directory_Controller.S_GetML1C1C1_2.Stallreqto_in |           8     88.89%     88.89% |           1     11.11%    100.00% |           0      0.00%    100.00% |           0      0.00%    100.00%
system.ruby.Directory_Controller.S_GetML1C1C1_2.Stallreqto_in::total            9                      
system.ruby.Directory_Controller.S_GetML1C1C1_3.Stallreqto_in |           0      0.00%      0.00% |           0      0.00%      0.00% |           0      0.00%      0.00% |           1    100.00%    100.00%
system.ruby.Directory_Controller.S_GetML1C1C1_3.Stallreqto_in::total            1                      
system.ruby.Directory_Controller.S_GetSL1C1C1_0.Stallreqto_in |        6737     19.29%     19.29% |        2471      7.08%     26.37% |       22214     63.61%     89.98% |        3501     10.02%    100.00%
system.ruby.Directory_Controller.S_GetSL1C1C1_0.Stallreqto_in::total        34923                      
system.ruby.Directory_Controller.Stallreqto_in |        7290     18.62%     18.62% |        2859      7.30%     25.92% |       24737     63.19%     89.11% |        4263     10.89%    100.00%
system.ruby.Directory_Controller.Stallreqto_in::total        39149                      
system.ruby.Directory_Controller.allocTBE |     4524821     24.39%     24.39% |     4579113     24.68%     49.07% |     4882800     26.32%     75.38% |     4567617     24.62%    100.00%
system.ruby.Directory_Controller.allocTBE::total     18554351                      
system.ruby.Directory_Controller.deallocTBE |     4524821     24.39%     24.39% |     4579113     24.68%     49.07% |     4882799     26.32%     75.38% |     4567616     24.62%    100.00%
system.ruby.Directory_Controller.deallocTBE::total     18554349                      
system.ruby.IFETCH.hit_latency_hist_seqr::bucket_size            1                      
system.ruby.IFETCH.hit_latency_hist_seqr::max_bucket            9                      
system.ruby.IFETCH.hit_latency_hist_seqr::samples    385659943                      
system.ruby.IFETCH.hit_latency_hist_seqr |   385659943    100.00%    100.00% |           0      0.00%    100.00% |           0      0.00%    100.00% |           0      0.00%    100.00% |           0      0.00%    100.00% |           0      0.00%    100.00% |           0      0.00%    100.00% |           0      0.00%    100.00% |           0      0.00%    100.00% |           0      0.00%    100.00%
system.ruby.IFETCH.hit_latency_hist_seqr::total    385659943                      
system.ruby.IFETCH.latency_hist_seqr::bucket_size            1                      
system.ruby.IFETCH.latency_hist_seqr::max_bucket            9                      
system.ruby.IFETCH.latency_hist_seqr::samples    387032510                      
system.ruby.IFETCH.latency_hist_seqr     |   387032510    100.00%    100.00% |           0      0.00%    100.00% |           0      0.00%    100.00% |           0      0.00%    100.00% |           0      0.00%    100.00% |           0      0.00%    100.00% |           0      0.00%    100.00% |           0      0.00%    100.00% |           0      0.00%    100.00% |           0      0.00%    100.00%
system.ruby.IFETCH.latency_hist_seqr::total    387032510                      
system.ruby.IFETCH.miss_latency_hist_seqr::bucket_size            1                      
system.ruby.IFETCH.miss_latency_hist_seqr::max_bucket            9                      
system.ruby.IFETCH.miss_latency_hist_seqr::samples      1372567                      
system.ruby.IFETCH.miss_latency_hist_seqr |     1372567    100.00%    100.00% |           0      0.00%    100.00% |           0      0.00%    100.00% |           0      0.00%    100.00% |           0      0.00%    100.00% |           0      0.00%    100.00% |           0      0.00%    100.00% |           0      0.00%    100.00% |           0      0.00%    100.00% |           0      0.00%    100.00%
system.ruby.IFETCH.miss_latency_hist_seqr::total      1372567                      
system.ruby.L1Cache_Controller.I.allocI_load |     1644642     24.44%     24.44% |     1656413     24.61%     49.05% |     1643079     24.42%     73.47% |     1785368     26.53%    100.00%
system.ruby.L1Cache_Controller.I.allocI_load::total      6729502                      
system.ruby.L1Cache_Controller.I.allocI_store |      604940     24.30%     24.30% |      602600     24.21%     48.51% |      601704     24.17%     72.68% |      679923     27.32%    100.00%
system.ruby.L1Cache_Controller.I.allocI_store::total      2489167                      
system.ruby.L1Cache_Controller.I.deallocfwdfrom_in |     2248575     24.40%     24.40% |     2258011     24.50%     48.91% |     2243773     24.35%     73.26% |     2464286     26.74%    100.00%
system.ruby.L1Cache_Controller.I.deallocfwdfrom_in::total      9214645                      
system.ruby.L1Cache_Controller.I_store.Progress |         532     45.51%     45.51% |         181     15.48%     60.99% |         172     14.71%     75.71% |         284     24.29%    100.00%
system.ruby.L1Cache_Controller.I_store.Progress::total         1169                      
system.ruby.L1Cache_Controller.I_store.Stallfwdfrom_in |          20     64.52%     64.52% |           6     19.35%     83.87% |           4     12.90%     96.77% |           1      3.23%    100.00%
system.ruby.L1Cache_Controller.I_store.Stallfwdfrom_in::total           31                      
system.ruby.L1Cache_Controller.M.MloadMEvent |     5356995     25.30%     25.30% |     5285218     24.96%     50.26% |     5269251     24.89%     75.15% |     5261840     24.85%    100.00%
system.ruby.L1Cache_Controller.M.MloadMEvent::total     21173304                      
system.ruby.L1Cache_Controller.M.MstoreMEvent |     6634428     25.28%     25.28% |     6557799     24.99%     50.27% |     6550829     24.96%     75.23% |     6501951     24.77%    100.00%
system.ruby.L1Cache_Controller.M.MstoreMEvent::total     26245007                      
system.ruby.L1Cache_Controller.M.allocTBE |      640845     24.41%     24.41% |      636876     24.25%     48.66% |      635217     24.19%     72.85% |      712839     27.15%    100.00%
system.ruby.L1Cache_Controller.M.allocTBE::total      2625777                      
system.ruby.L1Cache_Controller.M.externalstoreMrespfrom_in |      640981     24.41%     24.41% |      637006     24.25%     48.66% |      635348     24.19%     72.85% |      712988     27.15%    100.00%
system.ruby.L1Cache_Controller.M.externalstoreMrespfrom_in::total      2626323                      
system.ruby.L1Cache_Controller.M_evict.Stallmandatory_in |         782     26.36%     26.36% |         687     23.15%     49.51% |         716     24.13%     73.64% |         782     26.36%    100.00%
system.ruby.L1Cache_Controller.M_evict.Stallmandatory_in::total         2967                      
system.ruby.L1Cache_Controller.M_evict_x_I.Progress |           1     50.00%     50.00% |           0      0.00%     50.00% |           1     50.00%    100.00% |           0      0.00%    100.00%
system.ruby.L1Cache_Controller.M_evict_x_I.Progress::total            2                      
system.ruby.L1Cache_Controller.M_evict_x_I.Stallmandatory_in |           3     42.86%     42.86% |           0      0.00%     42.86% |           4     57.14%    100.00% |           0      0.00%    100.00%
system.ruby.L1Cache_Controller.M_evict_x_I.Stallmandatory_in::total            7                      
system.ruby.L1Cache_Controller.MloadMEvent |     5356995     25.30%     25.30% |     5285218     24.96%     50.26% |     5269251     24.89%     75.15% |     5261840     24.85%    100.00%
system.ruby.L1Cache_Controller.MloadMEvent::total     21173304                      
system.ruby.L1Cache_Controller.MstoreMEvent |     6634428     25.28%     25.28% |     6557799     24.99%     50.27% |     6550829     24.96%     75.23% |     6501951     24.77%    100.00%
system.ruby.L1Cache_Controller.MstoreMEvent::total     26245007                      
system.ruby.L1Cache_Controller.Progress  |       37456     26.62%     26.62% |       35097     24.94%     51.56% |       34286     24.36%     75.92% |       33882     24.08%    100.00%
system.ruby.L1Cache_Controller.Progress::total       140721                      
system.ruby.L1Cache_Controller.S.SloadSEvent |   112702586     25.07%     25.07% |   112317801     24.99%     50.06% |   112286903     24.98%     75.04% |   112171943     24.96%    100.00%
system.ruby.L1Cache_Controller.S.SloadSEvent::total    449479233                      
system.ruby.L1Cache_Controller.S.allocTBE |     1645537     24.45%     24.45% |     1656160     24.61%     49.06% |     1642724     24.41%     73.47% |     1785302     26.53%    100.00%
system.ruby.L1Cache_Controller.S.allocTBE::total      6729723                      
system.ruby.L1Cache_Controller.S.deallocTBE |        1766     47.74%     47.74% |         619     16.73%     64.48% |         524     14.17%     78.64% |         790     21.36%    100.00%
system.ruby.L1Cache_Controller.S.deallocTBE::total         3699                      
system.ruby.L1Cache_Controller.S.externalloadSrespfrom_in |     1644641     24.44%     24.44% |     1656413     24.61%     49.05% |     1643078     24.42%     73.47% |     1785368     26.53%    100.00%
system.ruby.L1Cache_Controller.S.externalloadSrespfrom_in::total      6729500                      
system.ruby.L1Cache_Controller.S_evict.Progress |           0      0.00%      0.00% |           0      0.00%      0.00% |           0      0.00%      0.00% |           1    100.00%    100.00%
system.ruby.L1Cache_Controller.S_evict.Progress::total            1                      
system.ruby.L1Cache_Controller.S_evict.Stallmandatory_in |         610     26.23%     26.23% |         500     21.50%     47.72% |         522     22.44%     70.16% |         694     29.84%    100.00%
system.ruby.L1Cache_Controller.S_evict.Stallmandatory_in::total         2326                      
system.ruby.L1Cache_Controller.S_evict_x_I.Progress |           1     25.00%     25.00% |           0      0.00%     25.00% |           2     50.00%     75.00% |           1     25.00%    100.00%
system.ruby.L1Cache_Controller.S_evict_x_I.Progress::total            4                      
system.ruby.L1Cache_Controller.S_evict_x_I.Stallmandatory_in |           5     25.00%     25.00% |           0      0.00%     25.00% |          10     50.00%     75.00% |           5     25.00%    100.00%
system.ruby.L1Cache_Controller.S_evict_x_I.Stallmandatory_in::total           20                      
system.ruby.L1Cache_Controller.S_store.Progress |       36922     26.46%     26.46% |       34916     25.02%     51.48% |       34111     24.44%     75.92% |       33596     24.08%    100.00%
system.ruby.L1Cache_Controller.S_store.Progress::total       139545                      
system.ruby.L1Cache_Controller.S_store.Stallfwdfrom_in |           0      0.00%      0.00% |           0      0.00%      0.00% |           0      0.00%      0.00% |           2    100.00%    100.00%
system.ruby.L1Cache_Controller.S_store.Stallfwdfrom_in::total            2                      
system.ruby.L1Cache_Controller.SloadSEvent |   112702586     25.07%     25.07% |   112317801     24.99%     50.06% |   112286903     24.98%     75.04% |   112171943     24.96%    100.00%
system.ruby.L1Cache_Controller.SloadSEvent::total    449479233                      
system.ruby.L1Cache_Controller.Stallfwdfrom_in |          20     60.61%     60.61% |           6     18.18%     78.79% |           4     12.12%     90.91% |           3      9.09%    100.00%
system.ruby.L1Cache_Controller.Stallfwdfrom_in::total           33                      
system.ruby.L1Cache_Controller.Stallmandatory_in |        1400     26.32%     26.32% |        1187     22.31%     48.63% |        1252     23.53%     72.16% |        1481     27.84%    100.00%
system.ruby.L1Cache_Controller.Stallmandatory_in::total         5320                      
system.ruby.L1Cache_Controller.allocI_load |     1644642     24.44%     24.44% |     1656413     24.61%     49.05% |     1643079     24.42%     73.47% |     1785368     26.53%    100.00%
system.ruby.L1Cache_Controller.allocI_load::total      6729502                      
system.ruby.L1Cache_Controller.allocI_store |      604940     24.30%     24.30% |      602600     24.21%     48.51% |      601704     24.17%     72.68% |      679923     27.32%    100.00%
system.ruby.L1Cache_Controller.allocI_store::total      2489167                      
system.ruby.L1Cache_Controller.allocTBE  |     2286382     24.44%     24.44% |     2293036     24.51%     48.95% |     2277941     24.35%     73.30% |     2498141     26.70%    100.00%
system.ruby.L1Cache_Controller.allocTBE::total      9355500                      
system.ruby.L1Cache_Controller.deallocTBE |        1766     47.74%     47.74% |         619     16.73%     64.48% |         524     14.17%     78.64% |         790     21.36%    100.00%
system.ruby.L1Cache_Controller.deallocTBE::total         3699                      
system.ruby.L1Cache_Controller.deallocfwdfrom_in |     2248575     24.40%     24.40% |     2258011     24.50%     48.91% |     2243773     24.35%     73.26% |     2464286     26.74%    100.00%
system.ruby.L1Cache_Controller.deallocfwdfrom_in::total      9214645                      
system.ruby.L1Cache_Controller.externalloadSrespfrom_in |     1644641     24.44%     24.44% |     1656413     24.61%     49.05% |     1643078     24.42%     73.47% |     1785368     26.53%    100.00%
system.ruby.L1Cache_Controller.externalloadSrespfrom_in::total      6729500                      
system.ruby.L1Cache_Controller.externalstoreMrespfrom_in |      640981     24.41%     24.41% |      637006     24.25%     48.66% |      635348     24.19%     72.85% |      712988     27.15%    100.00%
system.ruby.L1Cache_Controller.externalstoreMrespfrom_in::total      2626323                      
system.ruby.LD.hit_latency_hist_seqr::bucket_size            1                      
system.ruby.LD.hit_latency_hist_seqr::max_bucket            9                      
system.ruby.LD.hit_latency_hist_seqr::samples     84992594                      
system.ruby.LD.hit_latency_hist_seqr     |    84992594    100.00%    100.00% |           0      0.00%    100.00% |           0      0.00%    100.00% |           0      0.00%    100.00% |           0      0.00%    100.00% |           0      0.00%    100.00% |           0      0.00%    100.00% |           0      0.00%    100.00% |           0      0.00%    100.00% |           0      0.00%    100.00%
system.ruby.LD.hit_latency_hist_seqr::total     84992594                      
system.ruby.LD.latency_hist_seqr::bucket_size            1                      
system.ruby.LD.latency_hist_seqr::max_bucket            9                      
system.ruby.LD.latency_hist_seqr::samples     90349527                      
system.ruby.LD.latency_hist_seqr         |    90349527    100.00%    100.00% |           0      0.00%    100.00% |           0      0.00%    100.00% |           0      0.00%    100.00% |           0      0.00%    100.00% |           0      0.00%    100.00% |           0      0.00%    100.00% |           0      0.00%    100.00% |           0      0.00%    100.00% |           0      0.00%    100.00%
system.ruby.LD.latency_hist_seqr::total      90349527                      
system.ruby.LD.miss_latency_hist_seqr::bucket_size            1                      
system.ruby.LD.miss_latency_hist_seqr::max_bucket            9                      
system.ruby.LD.miss_latency_hist_seqr::samples      5356933                      
system.ruby.LD.miss_latency_hist_seqr    |     5356933    100.00%    100.00% |           0      0.00%    100.00% |           0      0.00%    100.00% |           0      0.00%    100.00% |           0      0.00%    100.00% |           0      0.00%    100.00% |           0      0.00%    100.00% |           0      0.00%    100.00% |           0      0.00%    100.00% |           0      0.00%    100.00%
system.ruby.LD.miss_latency_hist_seqr::total      5356933                      
system.ruby.Locked_RMW_Read.hit_latency_hist_seqr::bucket_size            1                      
system.ruby.Locked_RMW_Read.hit_latency_hist_seqr::max_bucket            9                      
system.ruby.Locked_RMW_Read.hit_latency_hist_seqr::samples      2641824                      
system.ruby.Locked_RMW_Read.hit_latency_hist_seqr |     2641824    100.00%    100.00% |           0      0.00%    100.00% |           0      0.00%    100.00% |           0      0.00%    100.00% |           0      0.00%    100.00% |           0      0.00%    100.00% |           0      0.00%    100.00% |           0      0.00%    100.00% |           0      0.00%    100.00% |           0      0.00%    100.00%
system.ruby.Locked_RMW_Read.hit_latency_hist_seqr::total      2641824                      
system.ruby.Locked_RMW_Read.latency_hist_seqr::bucket_size            1                      
system.ruby.Locked_RMW_Read.latency_hist_seqr::max_bucket            9                      
system.ruby.Locked_RMW_Read.latency_hist_seqr::samples      5026671                      
system.ruby.Locked_RMW_Read.latency_hist_seqr |     5026671    100.00%    100.00% |           0      0.00%    100.00% |           0      0.00%    100.00% |           0      0.00%    100.00% |           0      0.00%    100.00% |           0      0.00%    100.00% |           0      0.00%    100.00% |           0      0.00%    100.00% |           0      0.00%    100.00% |           0      0.00%    100.00%
system.ruby.Locked_RMW_Read.latency_hist_seqr::total      5026671                      
system.ruby.Locked_RMW_Read.miss_latency_hist_seqr::bucket_size            1                      
system.ruby.Locked_RMW_Read.miss_latency_hist_seqr::max_bucket            9                      
system.ruby.Locked_RMW_Read.miss_latency_hist_seqr::samples      2384847                      
system.ruby.Locked_RMW_Read.miss_latency_hist_seqr |     2384847    100.00%    100.00% |           0      0.00%    100.00% |           0      0.00%    100.00% |           0      0.00%    100.00% |           0      0.00%    100.00% |           0      0.00%    100.00% |           0      0.00%    100.00% |           0      0.00%    100.00% |           0      0.00%    100.00% |           0      0.00%    100.00%
system.ruby.Locked_RMW_Read.miss_latency_hist_seqr::total      2384847                      
system.ruby.Locked_RMW_Write.hit_latency_hist_seqr::bucket_size            1                      
system.ruby.Locked_RMW_Write.hit_latency_hist_seqr::max_bucket            9                      
system.ruby.Locked_RMW_Write.hit_latency_hist_seqr::samples      5026671                      
system.ruby.Locked_RMW_Write.hit_latency_hist_seqr |     5026671    100.00%    100.00% |           0      0.00%    100.00% |           0      0.00%    100.00% |           0      0.00%    100.00% |           0      0.00%    100.00% |           0      0.00%    100.00% |           0      0.00%    100.00% |           0      0.00%    100.00% |           0      0.00%    100.00% |           0      0.00%    100.00%
system.ruby.Locked_RMW_Write.hit_latency_hist_seqr::total      5026671                      
system.ruby.Locked_RMW_Write.latency_hist_seqr::bucket_size            1                      
system.ruby.Locked_RMW_Write.latency_hist_seqr::max_bucket            9                      
system.ruby.Locked_RMW_Write.latency_hist_seqr::samples      5026671                      
system.ruby.Locked_RMW_Write.latency_hist_seqr |     5026671    100.00%    100.00% |           0      0.00%    100.00% |           0      0.00%    100.00% |           0      0.00%    100.00% |           0      0.00%    100.00% |           0      0.00%    100.00% |           0      0.00%    100.00% |           0      0.00%    100.00% |           0      0.00%    100.00% |           0      0.00%    100.00%
system.ruby.Locked_RMW_Write.latency_hist_seqr::total      5026671                      
system.ruby.RMW_Read.hit_latency_hist_seqr::bucket_size            1                      
system.ruby.RMW_Read.hit_latency_hist_seqr::max_bucket            9                      
system.ruby.RMW_Read.hit_latency_hist_seqr::samples       127887                      
system.ruby.RMW_Read.hit_latency_hist_seqr |      127887    100.00%    100.00% |           0      0.00%    100.00% |           0      0.00%    100.00% |           0      0.00%    100.00% |           0      0.00%    100.00% |           0      0.00%    100.00% |           0      0.00%    100.00% |           0      0.00%    100.00% |           0      0.00%    100.00% |           0      0.00%    100.00%
system.ruby.RMW_Read.hit_latency_hist_seqr::total       127887                      
system.ruby.RMW_Read.latency_hist_seqr::bucket_size            1                      
system.ruby.RMW_Read.latency_hist_seqr::max_bucket            9                      
system.ruby.RMW_Read.latency_hist_seqr::samples       143246                      
system.ruby.RMW_Read.latency_hist_seqr   |      143246    100.00%    100.00% |           0      0.00%    100.00% |           0      0.00%    100.00% |           0      0.00%    100.00% |           0      0.00%    100.00% |           0      0.00%    100.00% |           0      0.00%    100.00% |           0      0.00%    100.00% |           0      0.00%    100.00% |           0      0.00%    100.00%
system.ruby.RMW_Read.latency_hist_seqr::total       143246                      
system.ruby.RMW_Read.miss_latency_hist_seqr::bucket_size            1                      
system.ruby.RMW_Read.miss_latency_hist_seqr::max_bucket            9                      
system.ruby.RMW_Read.miss_latency_hist_seqr::samples        15359                      
system.ruby.RMW_Read.miss_latency_hist_seqr |       15359    100.00%    100.00% |           0      0.00%    100.00% |           0      0.00%    100.00% |           0      0.00%    100.00% |           0      0.00%    100.00% |           0      0.00%    100.00% |           0      0.00%    100.00% |           0      0.00%    100.00% |           0      0.00%    100.00% |           0      0.00%    100.00%
system.ruby.RMW_Read.miss_latency_hist_seqr::total        15359                      
system.ruby.ST.hit_latency_hist_seqr::bucket_size            1                      
system.ruby.ST.hit_latency_hist_seqr::max_bucket            9                      
system.ruby.ST.hit_latency_hist_seqr::samples     18448625                      
system.ruby.ST.hit_latency_hist_seqr     |    18448625    100.00%    100.00% |           0      0.00%    100.00% |           0      0.00%    100.00% |           0      0.00%    100.00% |           0      0.00%    100.00% |           0      0.00%    100.00% |           0      0.00%    100.00% |           0      0.00%    100.00% |           0      0.00%    100.00% |           0      0.00%    100.00%
system.ruby.ST.hit_latency_hist_seqr::total     18448625                      
system.ruby.ST.latency_hist_seqr::bucket_size            1                      
system.ruby.ST.latency_hist_seqr::max_bucket            9                      
system.ruby.ST.latency_hist_seqr::samples     18674742                      
system.ruby.ST.latency_hist_seqr         |    18674742    100.00%    100.00% |           0      0.00%    100.00% |           0      0.00%    100.00% |           0      0.00%    100.00% |           0      0.00%    100.00% |           0      0.00%    100.00% |           0      0.00%    100.00% |           0      0.00%    100.00% |           0      0.00%    100.00% |           0      0.00%    100.00%
system.ruby.ST.latency_hist_seqr::total      18674742                      
system.ruby.ST.miss_latency_hist_seqr::bucket_size            1                      
system.ruby.ST.miss_latency_hist_seqr::max_bucket            9                      
system.ruby.ST.miss_latency_hist_seqr::samples       226117                      
system.ruby.ST.miss_latency_hist_seqr    |      226117    100.00%    100.00% |           0      0.00%    100.00% |           0      0.00%    100.00% |           0      0.00%    100.00% |           0      0.00%    100.00% |           0      0.00%    100.00% |           0      0.00%    100.00% |           0      0.00%    100.00% |           0      0.00%    100.00% |           0      0.00%    100.00%
system.ruby.ST.miss_latency_hist_seqr::total       226117                      
system.ruby.dir_cntrl0.fwdFrom.avg_buf_msgs     0.024672                       # Average number of messages in buffer
system.ruby.dir_cntrl0.fwdFrom.avg_stall_time  2999.975157                       # Average number of cycles messages are stalled in this MB
system.ruby.dir_cntrl0.reqTo.avg_buf_msgs     0.008408                       # Average number of messages in buffer
system.ruby.dir_cntrl0.reqTo.avg_stall_time  5332.368154                       # Average number of cycles messages are stalled in this MB
system.ruby.dir_cntrl0.requestToMemory.avg_buf_msgs     0.005325                       # Average number of messages in buffer
system.ruby.dir_cntrl0.requestToMemory.avg_stall_time   499.999992                       # Average number of cycles messages are stalled in this MB
system.ruby.dir_cntrl0.respFrom.avg_buf_msgs     0.025002                       # Average number of messages in buffer
system.ruby.dir_cntrl0.respFrom.avg_stall_time  3000.479630                       # Average number of cycles messages are stalled in this MB
system.ruby.dir_cntrl0.respTo.avg_buf_msgs     0.000012                       # Average number of messages in buffer
system.ruby.dir_cntrl0.respTo.avg_stall_time  5473.872213                       # Average number of cycles messages are stalled in this MB
system.ruby.dir_cntrl0.responseFromMemory.avg_buf_msgs     0.005345                       # Average number of messages in buffer
system.ruby.dir_cntrl0.responseFromMemory.avg_stall_time   499.999837                       # Average number of cycles messages are stalled in this MB
system.ruby.dir_cntrl1.fwdFrom.avg_buf_msgs     0.024957                       # Average number of messages in buffer
system.ruby.dir_cntrl1.fwdFrom.avg_stall_time  2999.887619                       # Average number of cycles messages are stalled in this MB
system.ruby.dir_cntrl1.reqTo.avg_buf_msgs     0.008426                       # Average number of messages in buffer
system.ruby.dir_cntrl1.reqTo.avg_stall_time  5303.531852                       # Average number of cycles messages are stalled in this MB
system.ruby.dir_cntrl1.requestToMemory.avg_buf_msgs     0.005502                       # Average number of messages in buffer
system.ruby.dir_cntrl1.requestToMemory.avg_stall_time   499.999799                       # Average number of cycles messages are stalled in this MB
system.ruby.dir_cntrl1.respFrom.avg_buf_msgs     0.025314                       # Average number of messages in buffer
system.ruby.dir_cntrl1.respFrom.avg_stall_time  3000.602860                       # Average number of cycles messages are stalled in this MB
system.ruby.dir_cntrl1.respTo.avg_buf_msgs     0.000011                       # Average number of messages in buffer
system.ruby.dir_cntrl1.respTo.avg_stall_time  5327.321581                       # Average number of cycles messages are stalled in this MB
system.ruby.dir_cntrl1.responseFromMemory.avg_buf_msgs     0.005523                       # Average number of messages in buffer
system.ruby.dir_cntrl1.responseFromMemory.avg_stall_time   499.999645                       # Average number of cycles messages are stalled in this MB
system.ruby.dir_cntrl2.fwdFrom.avg_buf_msgs     0.026629                       # Average number of messages in buffer
system.ruby.dir_cntrl2.fwdFrom.avg_stall_time  2999.846250                       # Average number of cycles messages are stalled in this MB
system.ruby.dir_cntrl2.reqTo.avg_buf_msgs     0.009381                       # Average number of messages in buffer
system.ruby.dir_cntrl2.reqTo.avg_stall_time  5268.531499                       # Average number of cycles messages are stalled in this MB
system.ruby.dir_cntrl2.requestToMemory.avg_buf_msgs     0.005656                       # Average number of messages in buffer
system.ruby.dir_cntrl2.requestToMemory.avg_stall_time   499.999384                       # Average number of cycles messages are stalled in this MB
system.ruby.dir_cntrl2.respFrom.avg_buf_msgs     0.027010                       # Average number of messages in buffer
system.ruby.dir_cntrl2.respFrom.avg_stall_time  3001.258138                       # Average number of cycles messages are stalled in this MB
system.ruby.dir_cntrl2.respTo.avg_buf_msgs     0.000012                       # Average number of messages in buffer
system.ruby.dir_cntrl2.respTo.avg_stall_time  5360.743579                       # Average number of cycles messages are stalled in this MB
system.ruby.dir_cntrl2.responseFromMemory.avg_buf_msgs     0.005678                       # Average number of messages in buffer
system.ruby.dir_cntrl2.responseFromMemory.avg_stall_time   499.999230                       # Average number of cycles messages are stalled in this MB
system.ruby.dir_cntrl3.fwdFrom.avg_buf_msgs     0.024910                       # Average number of messages in buffer
system.ruby.dir_cntrl3.fwdFrom.avg_stall_time  2999.991583                       # Average number of cycles messages are stalled in this MB
system.ruby.dir_cntrl3.reqTo.avg_buf_msgs     0.008431                       # Average number of messages in buffer
system.ruby.dir_cntrl3.reqTo.avg_stall_time  5185.579947                       # Average number of cycles messages are stalled in this MB
system.ruby.dir_cntrl3.requestToMemory.avg_buf_msgs     0.005362                       # Average number of messages in buffer
system.ruby.dir_cntrl3.requestToMemory.avg_stall_time   499.999784                       # Average number of cycles messages are stalled in this MB
system.ruby.dir_cntrl3.respFrom.avg_buf_msgs     0.025276                       # Average number of messages in buffer
system.ruby.dir_cntrl3.respFrom.avg_stall_time  3001.255656                       # Average number of cycles messages are stalled in this MB
system.ruby.dir_cntrl3.respTo.avg_buf_msgs     0.000011                       # Average number of messages in buffer
system.ruby.dir_cntrl3.respTo.avg_stall_time  5743.434640                       # Average number of cycles messages are stalled in this MB
system.ruby.dir_cntrl3.responseFromMemory.avg_buf_msgs     0.005382                       # Average number of messages in buffer
system.ruby.dir_cntrl3.responseFromMemory.avg_stall_time   499.999631                       # Average number of cycles messages are stalled in this MB
system.ruby.dma_cntrl0.cache.demand_accesses            0                       # Number of cache demand accesses
system.ruby.dma_cntrl0.cache.demand_hits            0                       # Number of cache demand hits
system.ruby.dma_cntrl0.cache.demand_misses            0                       # Number of cache demand misses
system.ruby.dma_cntrl0.fully_busy_cycles         2767                       # cycles for which number of transistions == max transitions
system.ruby.dma_cntrl0.fwdFrom.avg_buf_msgs     0.000002                       # Average number of messages in buffer
system.ruby.dma_cntrl0.fwdFrom.avg_stall_time  3514.033746                       # Average number of cycles messages are stalled in this MB
system.ruby.dma_cntrl0.mandatoryQueue.avg_buf_msgs     0.000346                       # Average number of messages in buffer
system.ruby.dma_cntrl0.mandatoryQueue.avg_stall_time 90818.616801                       # Average number of cycles messages are stalled in this MB
system.ruby.dma_cntrl0.reqTo.avg_buf_msgs     0.000554                       # Average number of messages in buffer
system.ruby.dma_cntrl0.reqTo.avg_stall_time  6217.679666                       # Average number of cycles messages are stalled in this MB
system.ruby.dma_cntrl0.respFrom.avg_buf_msgs     0.000004                       # Average number of messages in buffer
system.ruby.dma_cntrl0.respFrom.avg_stall_time 58114.718570                       # Average number of cycles messages are stalled in this MB
system.ruby.dma_cntrl0.respTo.avg_buf_msgs     0.000000                       # Average number of messages in buffer
system.ruby.dma_cntrl0.respTo.avg_stall_time   540.335008                       # Average number of cycles messages are stalled in this MB
system.ruby.hit_latency_hist_seqr::bucket_size            1                      
system.ruby.hit_latency_hist_seqr::max_bucket            9                      
system.ruby.hit_latency_hist_seqr::samples    496897544                      
system.ruby.hit_latency_hist_seqr        |   496897544    100.00%    100.00% |           0      0.00%    100.00% |           0      0.00%    100.00% |           0      0.00%    100.00% |           0      0.00%    100.00% |           0      0.00%    100.00% |           0      0.00%    100.00% |           0      0.00%    100.00% |           0      0.00%    100.00% |           0      0.00%    100.00%
system.ruby.hit_latency_hist_seqr::total    496897544                      
system.ruby.io_controller.cache.demand_accesses            0                       # Number of cache demand accesses
system.ruby.io_controller.cache.demand_hits            0                       # Number of cache demand hits
system.ruby.io_controller.cache.demand_misses            0                       # Number of cache demand misses
system.ruby.l1_cntrl0.cache.demand_accesses            0                       # Number of cache demand accesses
system.ruby.l1_cntrl0.cache.demand_hits             0                       # Number of cache demand hits
system.ruby.l1_cntrl0.cache.demand_misses            0                       # Number of cache demand misses
system.ruby.l1_cntrl0.fully_busy_cycles             2                       # cycles for which number of transistions == max transitions
system.ruby.l1_cntrl0.fwdFrom.avg_buf_msgs     2.196933                       # Average number of messages in buffer
system.ruby.l1_cntrl0.fwdFrom.avg_stall_time  6483.446193                       # Average number of cycles messages are stalled in this MB
system.ruby.l1_cntrl0.mandatoryQueue.avg_buf_msgs     0.350272                       # Average number of messages in buffer
system.ruby.l1_cntrl0.mandatoryQueue.avg_stall_time  5939.970586                       # Average number of cycles messages are stalled in this MB
system.ruby.l1_cntrl0.reqTo.avg_buf_msgs     0.008283                       # Average number of messages in buffer
system.ruby.l1_cntrl0.reqTo.avg_stall_time   499.999997                       # Average number of cycles messages are stalled in this MB
system.ruby.l1_cntrl0.respFrom.avg_buf_msgs     0.004183                       # Average number of messages in buffer
system.ruby.l1_cntrl0.respFrom.avg_stall_time 16495.198273                       # Average number of cycles messages are stalled in this MB
system.ruby.l1_cntrl0.respTo.avg_buf_msgs     0.000039                       # Average number of messages in buffer
system.ruby.l1_cntrl0.respTo.avg_stall_time   933.440474                       # Average number of cycles messages are stalled in this MB
system.ruby.l1_cntrl1.cache.demand_accesses            0                       # Number of cache demand accesses
system.ruby.l1_cntrl1.cache.demand_hits             0                       # Number of cache demand hits
system.ruby.l1_cntrl1.cache.demand_misses            0                       # Number of cache demand misses
system.ruby.l1_cntrl1.fwdFrom.avg_buf_msgs     0.004131                       # Average number of messages in buffer
system.ruby.l1_cntrl1.fwdFrom.avg_stall_time  6562.010086                       # Average number of cycles messages are stalled in this MB
system.ruby.l1_cntrl1.mandatoryQueue.avg_buf_msgs     0.350246                       # Average number of messages in buffer
system.ruby.l1_cntrl1.mandatoryQueue.avg_stall_time  5983.465401                       # Average number of cycles messages are stalled in this MB
system.ruby.l1_cntrl1.reqTo.avg_buf_msgs     0.008315                       # Average number of messages in buffer
system.ruby.l1_cntrl1.reqTo.avg_stall_time   499.999997                       # Average number of cycles messages are stalled in this MB
system.ruby.l1_cntrl1.respFrom.avg_buf_msgs     0.004196                       # Average number of messages in buffer
system.ruby.l1_cntrl1.respFrom.avg_stall_time 16609.676622                       # Average number of cycles messages are stalled in this MB
system.ruby.l1_cntrl1.respTo.avg_buf_msgs     0.000032                       # Average number of messages in buffer
system.ruby.l1_cntrl1.respTo.avg_stall_time   948.351690                       # Average number of cycles messages are stalled in this MB
system.ruby.l1_cntrl2.cache.demand_accesses            0                       # Number of cache demand accesses
system.ruby.l1_cntrl2.cache.demand_hits             0                       # Number of cache demand hits
system.ruby.l1_cntrl2.cache.demand_misses            0                       # Number of cache demand misses
system.ruby.l1_cntrl2.fully_busy_cycles             1                       # cycles for which number of transistions == max transitions
system.ruby.l1_cntrl2.fwdFrom.avg_buf_msgs     0.383188                       # Average number of messages in buffer
system.ruby.l1_cntrl2.fwdFrom.avg_stall_time  6445.137873                       # Average number of cycles messages are stalled in this MB
system.ruby.l1_cntrl2.mandatoryQueue.avg_buf_msgs     0.348428                       # Average number of messages in buffer
system.ruby.l1_cntrl2.mandatoryQueue.avg_stall_time  5901.279838                       # Average number of cycles messages are stalled in this MB
system.ruby.l1_cntrl2.reqTo.avg_buf_msgs     0.008260                       # Average number of messages in buffer
system.ruby.l1_cntrl2.reqTo.avg_stall_time   499.334331                       # Average number of cycles messages are stalled in this MB
system.ruby.l1_cntrl2.respFrom.avg_buf_msgs     0.004168                       # Average number of messages in buffer
system.ruby.l1_cntrl2.respFrom.avg_stall_time 16402.700584                       # Average number of cycles messages are stalled in this MB
system.ruby.l1_cntrl2.respTo.avg_buf_msgs     0.000032                       # Average number of messages in buffer
system.ruby.l1_cntrl2.respTo.avg_stall_time   917.933590                       # Average number of cycles messages are stalled in this MB
system.ruby.l1_cntrl3.cache.demand_accesses            0                       # Number of cache demand accesses
system.ruby.l1_cntrl3.cache.demand_hits             0                       # Number of cache demand hits
system.ruby.l1_cntrl3.cache.demand_misses            0                       # Number of cache demand misses
system.ruby.l1_cntrl3.fully_busy_cycles             1                       # cycles for which number of transistions == max transitions
system.ruby.l1_cntrl3.fwdFrom.avg_buf_msgs     0.437932                       # Average number of messages in buffer
system.ruby.l1_cntrl3.fwdFrom.avg_stall_time  6454.145181                       # Average number of cycles messages are stalled in this MB
system.ruby.l1_cntrl3.mandatoryQueue.avg_buf_msgs     0.359947                       # Average number of messages in buffer
system.ruby.l1_cntrl3.mandatoryQueue.avg_stall_time  6401.126929                       # Average number of cycles messages are stalled in this MB
system.ruby.l1_cntrl3.reqTo.avg_buf_msgs     0.009066                       # Average number of messages in buffer
system.ruby.l1_cntrl3.reqTo.avg_stall_time   499.999997                       # Average number of cycles messages are stalled in this MB
system.ruby.l1_cntrl3.respFrom.avg_buf_msgs     0.004571                       # Average number of messages in buffer
system.ruby.l1_cntrl3.respFrom.avg_stall_time 16470.110514                       # Average number of cycles messages are stalled in this MB
system.ruby.l1_cntrl3.respTo.avg_buf_msgs     0.000033                       # Average number of messages in buffer
system.ruby.l1_cntrl3.respTo.avg_stall_time   933.398416                       # Average number of cycles messages are stalled in this MB
system.ruby.latency_hist_seqr::bucket_size            1                      
system.ruby.latency_hist_seqr::max_bucket            9                      
system.ruby.latency_hist_seqr::samples      506253367                      
system.ruby.latency_hist_seqr            |   506253367    100.00%    100.00% |           0      0.00%    100.00% |           0      0.00%    100.00% |           0      0.00%    100.00% |           0      0.00%    100.00% |           0      0.00%    100.00% |           0      0.00%    100.00% |           0      0.00%    100.00% |           0      0.00%    100.00% |           0      0.00%    100.00%
system.ruby.latency_hist_seqr::total        506253367                      
system.ruby.miss_latency_hist_seqr::bucket_size            1                      
system.ruby.miss_latency_hist_seqr::max_bucket            9                      
system.ruby.miss_latency_hist_seqr::samples      9355823                      
system.ruby.miss_latency_hist_seqr       |     9355823    100.00%    100.00% |           0      0.00%    100.00% |           0      0.00%    100.00% |           0      0.00%    100.00% |           0      0.00%    100.00% |           0      0.00%    100.00% |           0      0.00%    100.00% |           0      0.00%    100.00% |           0      0.00%    100.00% |           0      0.00%    100.00%
system.ruby.miss_latency_hist_seqr::total      9355823                      
system.ruby.network.average_flit_latency    16.350643                      
system.ruby.network.average_flit_network_latency    12.048077                      
system.ruby.network.average_flit_queueing_latency     4.302566                      
system.ruby.network.average_flit_vnet_latency |   15.014994                       |    4.987980                       |    9.498367                      
system.ruby.network.average_flit_vqueue_latency |    5.993287                       |    6.000004                       |    1.028947                      
system.ruby.network.average_hops             0.994327                      
system.ruby.network.average_packet_latency    14.953062                      
system.ruby.network.average_packet_network_latency    11.445312                      
system.ruby.network.average_packet_queueing_latency     3.507751                      
system.ruby.network.average_packet_vnet_latency |   24.986981                       |    4.987980                       |    7.802194                      
system.ruby.network.average_packet_vqueue_latency |    5.984035                       |    6.000004                       |    1.016152                      
system.ruby.network.avg_link_utilization     0.465623                      
system.ruby.network.avg_vc_load          |    0.191081     41.04%     41.04% |    0.022498      4.83%     45.87% |    0.021426      4.60%     50.47% |    0.021420      4.60%     55.07% |    0.037787      8.12%     63.19% |    0.004245      0.91%     64.10% |    0.004216      0.91%     65.00% |    0.004216      0.91%     65.91% |    0.116563     25.03%     90.94% |    0.015652      3.36%     94.30% |    0.013293      2.85%     97.16% |    0.013226      2.84%    100.00%
system.ruby.network.avg_vc_load::total       0.465623                      
system.ruby.network.ext_in_link_utilization     85021231                      
system.ruby.network.ext_out_link_utilization     85021231                      
system.ruby.network.flit_network_latency |   703203458                       |    45986118                       |   275152755                      
system.ruby.network.flit_queueing_latency |   280686104                       |    55316361                       |    29806966                      
system.ruby.network.flits_injected       |    46833416     55.08%     55.08% |     9219387     10.84%     65.93% |    28968428     34.07%    100.00%
system.ruby.network.flits_injected::total     85021231                      
system.ruby.network.flits_received       |    46833416     55.08%     55.08% |     9219387     10.84%     65.93% |    28968428     34.07%    100.00%
system.ruby.network.flits_received::total     85021231                      
system.ruby.network.int_link_utilization     84538886                      
system.ruby.network.packet_network_latency |   234554994                       |    45986118                       |   144740056                      
system.ruby.network.packet_queueing_latency |    56172664                       |    55316361                       |    18850830                      
system.ruby.network.packets_injected     |     9387088     25.26%     25.26% |     9219387     24.81%     50.07% |    18551200     49.93%    100.00%
system.ruby.network.packets_injected::total     37157675                      
system.ruby.network.packets_received     |     9387088     25.26%     25.26% |     9219387     24.81%     50.07% |    18551200     49.93%    100.00%
system.ruby.network.packets_received::total     37157675                      
system.ruby.network.routers0.buffer_reads     41434283                      
system.ruby.network.routers0.buffer_writes     41434283                      
system.ruby.network.routers0.crossbar_activity     41434283                      
system.ruby.network.routers0.sw_input_arbiter_activity     41540519                      
system.ruby.network.routers0.sw_output_arbiter_activity     41434283                      
system.ruby.network.routers1.buffer_reads     42267076                      
system.ruby.network.routers1.buffer_writes     42267076                      
system.ruby.network.routers1.crossbar_activity     42267076                      
system.ruby.network.routers1.sw_input_arbiter_activity     42371626                      
system.ruby.network.routers1.sw_output_arbiter_activity     42267076                      
system.ruby.network.routers2.buffer_reads     42442797                      
system.ruby.network.routers2.buffer_writes     42442797                      
system.ruby.network.routers2.crossbar_activity     42442797                      
system.ruby.network.routers2.sw_input_arbiter_activity     42550648                      
system.ruby.network.routers2.sw_output_arbiter_activity     42442797                      
system.ruby.network.routers3.buffer_reads     43415961                      
system.ruby.network.routers3.buffer_writes     43415961                      
system.ruby.network.routers3.crossbar_activity     43415961                      
system.ruby.network.routers3.sw_input_arbiter_activity     43523347                      
system.ruby.network.routers3.sw_output_arbiter_activity     43415961                      
system.ruby.outstanding_req_hist_seqr::bucket_size            1                      
system.ruby.outstanding_req_hist_seqr::max_bucket            9                      
system.ruby.outstanding_req_hist_seqr::samples    506253369                      
system.ruby.outstanding_req_hist_seqr::mean     1.000000                      
system.ruby.outstanding_req_hist_seqr::gmean     1.000000                      
system.ruby.outstanding_req_hist_seqr::stdev     0.000183                      
system.ruby.outstanding_req_hist_seqr    |           0      0.00%      0.00% |   506253352    100.00%    100.00% |          17      0.00%    100.00% |           0      0.00%    100.00% |           0      0.00%    100.00% |           0      0.00%    100.00% |           0      0.00%    100.00% |           0      0.00%    100.00% |           0      0.00%    100.00% |           0      0.00%    100.00%
system.ruby.outstanding_req_hist_seqr::total    506253369                      
system.switch_cpus0.Branches                  5983915                       # Number of branches fetched
system.switch_cpus0.committedInsts           69040427                       # Number of instructions committed
system.switch_cpus0.committedOps            119998944                       # Number of ops (including micro ops) committed
system.switch_cpus0.dtb.rdAccesses           20408370                       # TLB accesses on read requests
system.switch_cpus0.dtb.rdMisses              1178456                       # TLB misses on read requests
system.switch_cpus0.dtb.wrAccesses            5978883                       # TLB accesses on write requests
system.switch_cpus0.dtb.wrMisses                 1066                       # TLB misses on write requests
system.switch_cpus0.idle_fraction            0.041749                       # Percentage of idle cycles
system.switch_cpus0.itb.rdAccesses                  0                       # TLB accesses on read requests
system.switch_cpus0.itb.rdMisses                    0                       # TLB misses on read requests
system.switch_cpus0.itb.wrAccesses           97046779                       # TLB accesses on write requests
system.switch_cpus0.itb.wrMisses                 2992                       # TLB misses on write requests
system.switch_cpus0.kern.inst.arm                   0                       # number of arm instructions executed
system.switch_cpus0.kern.inst.quiesce               0                       # number of quiesce instructions executed
system.switch_cpus0.not_idle_fraction        0.958251                       # Percentage of non-idle cycles
system.switch_cpus0.numCycles               546754020                       # number of cpu cycles simulated
system.switch_cpus0.numWorkItemsCompleted            0                       # number of work items this cpu completed
system.switch_cpus0.numWorkItemsStarted             0                       # number of work items this cpu started
system.switch_cpus0.num_busy_cycles      523927442.880866                       # Number of busy cycles
system.switch_cpus0.num_cc_register_reads     41946738                       # number of times the CC registers were read
system.switch_cpus0.num_cc_register_writes     38102007                       # number of times the CC registers were written
system.switch_cpus0.num_conditional_control_insts      4395551                       # number of instructions that are conditional controls
system.switch_cpus0.num_fp_alu_accesses      39510901                       # Number of float alu accesses
system.switch_cpus0.num_fp_insts             39510901                       # number of float instructions
system.switch_cpus0.num_fp_register_reads     72518642                       # number of times the floating registers were read
system.switch_cpus0.num_fp_register_writes     38271797                       # number of times the floating registers were written
system.switch_cpus0.num_func_calls            1208439                       # number of times a function call or return occured
system.switch_cpus0.num_idle_cycles      22826577.119134                       # Number of idle cycles
system.switch_cpus0.num_int_alu_accesses     85253081                       # Number of integer alu accesses
system.switch_cpus0.num_int_insts            85253081                       # number of integer instructions
system.switch_cpus0.num_int_register_reads    179723014                       # number of times the integer registers were read
system.switch_cpus0.num_int_register_writes     66574185                       # number of times the integer registers were written
system.switch_cpus0.num_load_insts           19229917                       # Number of load instructions
system.switch_cpus0.num_mem_refs             25207787                       # number of memory refs
system.switch_cpus0.num_store_insts           5977870                       # Number of store instructions
system.switch_cpus0.num_vec_alu_accesses            0                       # Number of vector alu accesses
system.switch_cpus0.num_vec_insts                   0                       # number of vector instructions
system.switch_cpus0.num_vec_register_reads            0                       # number of times the vector registers were read
system.switch_cpus0.num_vec_register_writes            0                       # number of times the vector registers were written
system.switch_cpus0.op_class::No_OpClass       380809      0.32%      0.32% # Class of executed instruction
system.switch_cpus0.op_class::IntAlu         59908387     49.92%     50.24% # Class of executed instruction
system.switch_cpus0.op_class::IntMult            8164      0.01%     50.25% # Class of executed instruction
system.switch_cpus0.op_class::IntDiv            19141      0.02%     50.26% # Class of executed instruction
system.switch_cpus0.op_class::FloatAdd         869328      0.72%     50.99% # Class of executed instruction
system.switch_cpus0.op_class::FloatCmp              0      0.00%     50.99% # Class of executed instruction
system.switch_cpus0.op_class::FloatCvt            640      0.00%     50.99% # Class of executed instruction
system.switch_cpus0.op_class::FloatMult             0      0.00%     50.99% # Class of executed instruction
system.switch_cpus0.op_class::FloatMultAcc            0      0.00%     50.99% # Class of executed instruction
system.switch_cpus0.op_class::FloatDiv              0      0.00%     50.99% # Class of executed instruction
system.switch_cpus0.op_class::FloatMisc             0      0.00%     50.99% # Class of executed instruction
system.switch_cpus0.op_class::FloatSqrt             0      0.00%     50.99% # Class of executed instruction
system.switch_cpus0.op_class::SimdAdd          203226      0.17%     51.16% # Class of executed instruction
system.switch_cpus0.op_class::SimdAddAcc            0      0.00%     51.16% # Class of executed instruction
system.switch_cpus0.op_class::SimdAlu        18927588     15.77%     66.93% # Class of executed instruction
system.switch_cpus0.op_class::SimdCmp               0      0.00%     66.93% # Class of executed instruction
system.switch_cpus0.op_class::SimdCvt             224      0.00%     66.93% # Class of executed instruction
system.switch_cpus0.op_class::SimdMisc        4370895      3.64%     70.57% # Class of executed instruction
system.switch_cpus0.op_class::SimdMult              0      0.00%     70.57% # Class of executed instruction
system.switch_cpus0.op_class::SimdMultAcc            0      0.00%     70.57% # Class of executed instruction
system.switch_cpus0.op_class::SimdShift        203613      0.17%     70.74% # Class of executed instruction
system.switch_cpus0.op_class::SimdShiftAcc            0      0.00%     70.74% # Class of executed instruction
system.switch_cpus0.op_class::SimdDiv               0      0.00%     70.74% # Class of executed instruction
system.switch_cpus0.op_class::SimdSqrt              0      0.00%     70.74% # Class of executed instruction
system.switch_cpus0.op_class::SimdFloatAdd      4808865      4.01%     74.75% # Class of executed instruction
system.switch_cpus0.op_class::SimdFloatAlu            0      0.00%     74.75% # Class of executed instruction
system.switch_cpus0.op_class::SimdFloatCmp            0      0.00%     74.75% # Class of executed instruction
system.switch_cpus0.op_class::SimdFloatCvt      4455851      3.71%     78.46% # Class of executed instruction
system.switch_cpus0.op_class::SimdFloatDiv        71365      0.06%     78.52% # Class of executed instruction
system.switch_cpus0.op_class::SimdFloatMisc            0      0.00%     78.52% # Class of executed instruction
system.switch_cpus0.op_class::SimdFloatMult       563066      0.47%     78.99% # Class of executed instruction
system.switch_cpus0.op_class::SimdFloatMultAcc            0      0.00%     78.99% # Class of executed instruction
system.switch_cpus0.op_class::SimdFloatSqrt            0      0.00%     78.99% # Class of executed instruction
system.switch_cpus0.op_class::SimdReduceAdd            0      0.00%     78.99% # Class of executed instruction
system.switch_cpus0.op_class::SimdReduceAlu            0      0.00%     78.99% # Class of executed instruction
system.switch_cpus0.op_class::SimdReduceCmp            0      0.00%     78.99% # Class of executed instruction
system.switch_cpus0.op_class::SimdFloatReduceAdd            0      0.00%     78.99% # Class of executed instruction
system.switch_cpus0.op_class::SimdFloatReduceCmp            0      0.00%     78.99% # Class of executed instruction
system.switch_cpus0.op_class::SimdAes               0      0.00%     78.99% # Class of executed instruction
system.switch_cpus0.op_class::SimdAesMix            0      0.00%     78.99% # Class of executed instruction
system.switch_cpus0.op_class::SimdSha1Hash            0      0.00%     78.99% # Class of executed instruction
system.switch_cpus0.op_class::SimdSha1Hash2            0      0.00%     78.99% # Class of executed instruction
system.switch_cpus0.op_class::SimdSha256Hash            0      0.00%     78.99% # Class of executed instruction
system.switch_cpus0.op_class::SimdSha256Hash2            0      0.00%     78.99% # Class of executed instruction
system.switch_cpus0.op_class::SimdShaSigma2            0      0.00%     78.99% # Class of executed instruction
system.switch_cpus0.op_class::SimdShaSigma3            0      0.00%     78.99% # Class of executed instruction
system.switch_cpus0.op_class::SimdPredAlu            0      0.00%     78.99% # Class of executed instruction
system.switch_cpus0.op_class::MemRead        16490310     13.74%     92.74% # Class of executed instruction
[...]
system.mem_ctrls1.llc.tags.total_refs               0                       # Total number of references to valid blocks.
system.mem_ctrls1.llc.tags.sampled_refs             0                       # Sample count of references to valid blocks.
system.mem_ctrls1.llc.tags.avg_refs               nan                       # Average number of references to valid blocks.
system.mem_ctrls1.llc.tags.warmup_cycle  102194203132500                       # Cycle when the warmup percentage was hit.
system.mem_ctrls1.llc.tags.occ_blocks::.ruby.dir_cntrl1 86140.064573                       # Average occupied blocks per requestor
system.mem_ctrls1.llc.tags.occ_percent::.ruby.dir_cntrl1     0.328598                       # Average percentage of cache occupancy
system.mem_ctrls1.llc.tags.occ_percent::total     0.328598                       # Average percentage of cache occupancy
system.mem_ctrls1.llc.tags.occ_task_id_blocks::1024       115359                       # Occupied blocks per task id
system.mem_ctrls1.llc.tags.age_task_id_blocks_1024::0           13                       # Occupied blocks per task id
system.mem_ctrls1.llc.tags.age_task_id_blocks_1024::1           69                       # Occupied blocks per task id
system.mem_ctrls1.llc.tags.age_task_id_blocks_1024::2           99                       # Occupied blocks per task id
system.mem_ctrls1.llc.tags.age_task_id_blocks_1024::3          745                       # Occupied blocks per task id
system.mem_ctrls1.llc.tags.age_task_id_blocks_1024::4       114433                       # Occupied blocks per task id
system.mem_ctrls1.llc.tags.occ_task_id_percent::1024     0.440060                       # Percentage of cache occupancy per task id
system.mem_ctrls1.llc.tags.tag_accesses      48250607                       # Number of tag accesses
system.mem_ctrls1.llc.tags.data_accesses      3008453                       # Number of data accesses
system.mem_ctrls1.llc.tags.power_state.pwrStateResidencyTicks::UNDEFINED 102467580004001                       # Cumulative time (in ticks) in various power states
system.mem_ctrls1.rank1.actEnergy           401596440                       # Energy for activate commands per rank (pJ)
system.mem_ctrls1.rank1.preEnergy           213449775                       # Energy for precharge commands per rank (pJ)
system.mem_ctrls1.rank1.readEnergy          411692400                       # Energy for read commands per rank (pJ)
system.mem_ctrls1.rank1.writeEnergy                 0                       # Energy for write commands per rank (pJ)
system.mem_ctrls1.rank1.refreshEnergy    21580010400.000004                       # Energy for refresh commands per rank (pJ)
system.mem_ctrls1.rank1.actBackEnergy     53120407860                       # Energy for active background per rank (pJ)
system.mem_ctrls1.rank1.preBackEnergy     60243641280                       # Energy for precharge background per rank (pJ)
system.mem_ctrls1.rank1.actPowerDownEnergy            0                       # Energy for active power-down per rank (pJ)
system.mem_ctrls1.rank1.prePowerDownEnergy            0                       # Energy for precharge power-down per rank (pJ)
system.mem_ctrls1.rank1.selfRefreshEnergy            0                       # Energy for self refresh per rank (pJ)
system.mem_ctrls1.rank1.totalEnergy      135970798155                       # Total energy per rank (pJ)
system.mem_ctrls1.rank1.averagePower       497.374600                       # Core power per rank (mW)
system.mem_ctrls1.rank1.totalIdleTime               0                       # Total Idle time Per DRAM Rank
system.mem_ctrls1.rank1.memoryStateTime::IDLE 156081165752                       # Time in different power states
system.mem_ctrls1.rank1.memoryStateTime::REF   9128600000                       # Time in different power states
system.mem_ctrls1.rank1.memoryStateTime::SREF            0                       # Time in different power states
system.mem_ctrls1.rank1.memoryStateTime::PRE_PDN            0                       # Time in different power states
system.mem_ctrls1.rank1.memoryStateTime::ACT 108167278749                       # Time in different power states
system.mem_ctrls1.rank1.memoryStateTime::ACT_PDN            0                       # Time in different power states
system.mem_ctrls1.rank0.actEnergy           403181520                       # Energy for activate commands per rank (pJ)
system.mem_ctrls1.rank0.preEnergy           214288470                       # Energy for precharge commands per rank (pJ)
system.mem_ctrls1.rank0.readEnergy          411970860                       # Energy for read commands per rank (pJ)
system.mem_ctrls1.rank0.writeEnergy                 0                       # Energy for write commands per rank (pJ)
system.mem_ctrls1.rank0.refreshEnergy    21580010400.000004                       # Energy for refresh commands per rank (pJ)
system.mem_ctrls1.rank0.actBackEnergy     53213407350                       # Energy for active background per rank (pJ)
system.mem_ctrls1.rank0.preBackEnergy     60165448800                       # Energy for precharge background per rank (pJ)
system.mem_ctrls1.rank0.actPowerDownEnergy            0                       # Energy for active power-down per rank (pJ)
system.mem_ctrls1.rank0.prePowerDownEnergy            0                       # Energy for precharge power-down per rank (pJ)
system.mem_ctrls1.rank0.selfRefreshEnergy            0                       # Energy for self refresh per rank (pJ)
system.mem_ctrls1.rank0.totalEnergy      135988307400                       # Total energy per rank (pJ)
system.mem_ctrls1.rank0.averagePower       497.438648                       # Core power per rank (mW)
system.mem_ctrls1.rank0.totalIdleTime               0                       # Total Idle time Per DRAM Rank
system.mem_ctrls1.rank0.memoryStateTime::IDLE 155876867001                       # Time in different power states
system.mem_ctrls1.rank0.memoryStateTime::REF   9128600000                       # Time in different power states
system.mem_ctrls1.rank0.memoryStateTime::SREF            0                       # Time in different power states
system.mem_ctrls1.rank0.memoryStateTime::PRE_PDN            0                       # Time in different power states
system.mem_ctrls1.rank0.memoryStateTime::ACT 108371577500                       # Time in different power states
system.mem_ctrls1.rank0.memoryStateTime::ACT_PDN            0                       # Time in different power states
system.mem_ctrls1.power_state.pwrStateResidencyTicks::UNDEFINED 102467580004001                       # Cumulative time (in ticks) in various power states
system.cpu_voltage_domain.voltage                   1                       # Voltage in Volts
system.iobus.trans_dist::ReadReq                  314                       # Transaction distribution
system.iobus.trans_dist::ReadResp                 314                       # Transaction distribution
system.iobus.trans_dist::WriteReq                1722                       # Transaction distribution
system.iobus.trans_dist::WriteResp               1722                       # Transaction distribution
system.iobus.pkt_count_system.pc.south_bridge.io_apic.int_master::system.ruby.l1_cntrl1.sequencer.pio-slave-port          134                       # Packet count per connected master and slave (bytes)
system.iobus.pkt_count_system.pc.south_bridge.io_apic.int_master::total          134                       # Packet count per connected master and slave (bytes)
system.iobus.pkt_count_system.ruby.l1_cntrl0.sequencer.mem-master-port::system.pc.south_bridge.ide.pio           34                       # Packet count per connected master and slave (bytes)
system.iobus.pkt_count_system.ruby.l1_cntrl0.sequencer.mem-master-port::system.ruby.l1_cntrl0.sequencer.pio-slave-port          636                       # Packet count per connected master and slave (bytes)
system.iobus.pkt_count_system.ruby.l1_cntrl0.sequencer.mem-master-port::system.ruby.l1_cntrl1.sequencer.pio-slave-port            4                       # Packet count per connected master and slave (bytes)
system.iobus.pkt_count_system.ruby.l1_cntrl0.sequencer.mem-master-port::system.ruby.l1_cntrl2.sequencer.pio-slave-port            4                       # Packet count per connected master and slave (bytes)
system.iobus.pkt_count_system.ruby.l1_cntrl0.sequencer.mem-master-port::system.ruby.l1_cntrl3.sequencer.pio-slave-port            4                       # Packet count per connected master and slave (bytes)
system.iobus.pkt_count_system.ruby.l1_cntrl0.sequencer.mem-master-port::total          682                       # Packet count per connected master and slave (bytes)
system.iobus.pkt_count_system.ruby.l1_cntrl1.sequencer.mem-master-port::system.pc.south_bridge.ide.pio           12                       # Packet count per connected master and slave (bytes)
system.iobus.pkt_count_system.ruby.l1_cntrl1.sequencer.mem-master-port::system.pc.com_1.pio          538                       # Packet count per connected master and slave (bytes)
system.iobus.pkt_count_system.ruby.l1_cntrl1.sequencer.mem-master-port::system.ruby.l1_cntrl0.sequencer.pio-slave-port            4                       # Packet count per connected master and slave (bytes)
system.iobus.pkt_count_system.ruby.l1_cntrl1.sequencer.mem-master-port::system.ruby.l1_cntrl1.sequencer.pio-slave-port          662                       # Packet count per connected master and slave (bytes)
system.iobus.pkt_count_system.ruby.l1_cntrl1.sequencer.mem-master-port::system.ruby.l1_cntrl2.sequencer.pio-slave-port            2                       # Packet count per connected master and slave (bytes)
system.iobus.pkt_count_system.ruby.l1_cntrl1.sequencer.mem-master-port::system.ruby.l1_cntrl3.sequencer.pio-slave-port            2                       # Packet count per connected master and slave (bytes)
system.iobus.pkt_count_system.ruby.l1_cntrl1.sequencer.mem-master-port::total         1220                       # Packet count per connected master and slave (bytes)
system.iobus.pkt_count_system.ruby.l1_cntrl2.sequencer.mem-master-port::system.ruby.l1_cntrl0.sequencer.pio-slave-port            6                       # Packet count per connected master and slave (bytes)
system.iobus.pkt_count_system.ruby.l1_cntrl2.sequencer.mem-master-port::system.ruby.l1_cntrl1.sequencer.pio-slave-port            4                       # Packet count per connected master and slave (bytes)
system.iobus.pkt_count_system.ruby.l1_cntrl2.sequencer.mem-master-port::system.ruby.l1_cntrl2.sequencer.pio-slave-port          642                       # Packet count per connected master and slave (bytes)
system.iobus.pkt_count_system.ruby.l1_cntrl2.sequencer.mem-master-port::system.ruby.l1_cntrl3.sequencer.pio-slave-port            6                       # Packet count per connected master and slave (bytes)
system.iobus.pkt_count_system.ruby.l1_cntrl2.sequencer.mem-master-port::total          658                       # Packet count per connected master and slave (bytes)
system.iobus.pkt_count_system.ruby.l1_cntrl3.sequencer.mem-master-port::system.ruby.l1_cntrl0.sequencer.pio-slave-port           72                       # Packet count per connected master and slave (bytes)
system.iobus.pkt_count_system.ruby.l1_cntrl3.sequencer.mem-master-port::system.ruby.l1_cntrl1.sequencer.pio-slave-port           68                       # Packet count per connected master and slave (bytes)
system.iobus.pkt_count_system.ruby.l1_cntrl3.sequencer.mem-master-port::system.ruby.l1_cntrl2.sequencer.pio-slave-port           68                       # Packet count per connected master and slave (bytes)
system.iobus.pkt_count_system.ruby.l1_cntrl3.sequencer.mem-master-port::system.ruby.l1_cntrl3.sequencer.pio-slave-port         1170                       # Packet count per connected master and slave (bytes)
system.iobus.pkt_count_system.ruby.l1_cntrl3.sequencer.mem-master-port::total         1378                       # Packet count per connected master and slave (bytes)
system.iobus.pkt_count::total                    4072                       # Packet count per connected master and slave (bytes)
system.iobus.pkt_size_system.pc.south_bridge.io_apic.int_master::system.ruby.l1_cntrl1.sequencer.pio-slave-port          268                       # Cumulative packet size per connected master and slave (bytes)
system.iobus.pkt_size_system.pc.south_bridge.io_apic.int_master::total          268                       # Cumulative packet size per connected master and slave (bytes)
system.iobus.pkt_size_system.ruby.l1_cntrl0.sequencer.mem-master-port::system.pc.south_bridge.ide.pio           20                       # Cumulative packet size per connected master and slave (bytes)
system.iobus.pkt_size_system.ruby.l1_cntrl0.sequencer.mem-master-port::system.ruby.l1_cntrl0.sequencer.pio-slave-port         1272                       # Cumulative packet size per connected master and slave (bytes)
system.iobus.pkt_size_system.ruby.l1_cntrl0.sequencer.mem-master-port::system.ruby.l1_cntrl1.sequencer.pio-slave-port            8                       # Cumulative packet size per connected master and slave (bytes)
system.iobus.pkt_size_system.ruby.l1_cntrl0.sequencer.mem-master-port::system.ruby.l1_cntrl2.sequencer.pio-slave-port            8                       # Cumulative packet size per connected master and slave (bytes)
system.iobus.pkt_size_system.ruby.l1_cntrl0.sequencer.mem-master-port::system.ruby.l1_cntrl3.sequencer.pio-slave-port            8                       # Cumulative packet size per connected master and slave (bytes)
system.iobus.pkt_size_system.ruby.l1_cntrl0.sequencer.mem-master-port::total         1316                       # Cumulative packet size per connected master and slave (bytes)
system.iobus.pkt_size_system.ruby.l1_cntrl1.sequencer.mem-master-port::system.pc.south_bridge.ide.pio            6                       # Cumulative packet size per connected master and slave (bytes)
system.iobus.pkt_size_system.ruby.l1_cntrl1.sequencer.mem-master-port::system.pc.com_1.pio          269                       # Cumulative packet size per connected master and slave (bytes)
system.iobus.pkt_size_system.ruby.l1_cntrl1.sequencer.mem-master-port::system.ruby.l1_cntrl0.sequencer.pio-slave-port            8                       # Cumulative packet size per connected master and slave (bytes)
system.iobus.pkt_size_system.ruby.l1_cntrl1.sequencer.mem-master-port::system.ruby.l1_cntrl1.sequencer.pio-slave-port         1324                       # Cumulative packet size per connected master and slave (bytes)
system.iobus.pkt_size_system.ruby.l1_cntrl1.sequencer.mem-master-port::system.ruby.l1_cntrl2.sequencer.pio-slave-port            4                       # Cumulative packet size per connected master and slave (bytes)
system.iobus.pkt_size_system.ruby.l1_cntrl1.sequencer.mem-master-port::system.ruby.l1_cntrl3.sequencer.pio-slave-port            4                       # Cumulative packet size per connected master and slave (bytes)
system.iobus.pkt_size_system.ruby.l1_cntrl1.sequencer.mem-master-port::total         1615                       # Cumulative packet size per connected master and slave (bytes)
system.iobus.pkt_size_system.ruby.l1_cntrl2.sequencer.mem-master-port::system.ruby.l1_cntrl0.sequencer.pio-slave-port           12                       # Cumulative packet size per connected master and slave (bytes)
system.iobus.pkt_size_system.ruby.l1_cntrl2.sequencer.mem-master-port::system.ruby.l1_cntrl1.sequencer.pio-slave-port            8                       # Cumulative packet size per connected master and slave (bytes)
system.iobus.pkt_size_system.ruby.l1_cntrl2.sequencer.mem-master-port::system.ruby.l1_cntrl2.sequencer.pio-slave-port         1284                       # Cumulative packet size per connected master and slave (bytes)
system.iobus.pkt_size_system.ruby.l1_cntrl2.sequencer.mem-master-port::system.ruby.l1_cntrl3.sequencer.pio-slave-port           12                       # Cumulative packet size per connected master and slave (bytes)
system.iobus.pkt_size_system.ruby.l1_cntrl2.sequencer.mem-master-port::total         1316                       # Cumulative packet size per connected master and slave (bytes)
system.iobus.pkt_size_system.ruby.l1_cntrl3.sequencer.mem-master-port::system.ruby.l1_cntrl0.sequencer.pio-slave-port          144                       # Cumulative packet size per connected master and slave (bytes)
system.iobus.pkt_size_system.ruby.l1_cntrl3.sequencer.mem-master-port::system.ruby.l1_cntrl1.sequencer.pio-slave-port          136                       # Cumulative packet size per connected master and slave (bytes)
system.iobus.pkt_size_system.ruby.l1_cntrl3.sequencer.mem-master-port::system.ruby.l1_cntrl2.sequencer.pio-slave-port          136                       # Cumulative packet size per connected master and slave (bytes)
system.iobus.pkt_size_system.ruby.l1_cntrl3.sequencer.mem-master-port::system.ruby.l1_cntrl3.sequencer.pio-slave-port         2340                       # Cumulative packet size per connected master and slave (bytes)
system.iobus.pkt_size_system.ruby.l1_cntrl3.sequencer.mem-master-port::total         2756                       # Cumulative packet size per connected master and slave (bytes)
system.iobus.pkt_size::total                     7271                       # Cumulative packet size per connected master and slave (bytes)
system.iobus.reqLayer2.occupancy                38500                       # Layer occupancy (ticks)
system.iobus.reqLayer2.utilization                0.0                       # Layer utilization (%)
system.iobus.power_state.pwrStateResidencyTicks::UNDEFINED 102467580004001                       # Cumulative time (in ticks) in various power states
system.iobus.reqLayer19.occupancy              885199                       # Layer occupancy (ticks)
system.iobus.reqLayer19.utilization               0.0                       # Layer utilization (%)
system.iobus.reqLayer17.occupancy              896199                       # Layer occupancy (ticks)
system.iobus.reqLayer17.utilization               0.0                       # Layer utilization (%)
system.iobus.reqLayer12.occupancy              342000                       # Layer occupancy (ticks)
system.iobus.reqLayer12.utilization               0.0                       # Layer utilization (%)
system.iobus.reqLayer18.occupancy             1046691                       # Layer occupancy (ticks)
system.iobus.reqLayer18.utilization               0.0                       # Layer utilization (%)
system.iobus.respLayer9.occupancy             1083000                       # Layer occupancy (ticks)
system.iobus.respLayer9.utilization               0.0                       # Layer utilization (%)
system.iobus.respLayer5.occupancy              977000                       # Layer occupancy (ticks)
system.iobus.respLayer5.utilization               0.0                       # Layer utilization (%)
system.iobus.respLayer7.occupancy              492500                       # Layer occupancy (ticks)
system.iobus.respLayer7.utilization               0.0                       # Layer utilization (%)
system.iobus.respLayer0.occupancy              100499                       # Layer occupancy (ticks)
system.iobus.respLayer0.utilization               0.0                       # Layer utilization (%)
system.iobus.respLayer3.occupancy              505000                       # Layer occupancy (ticks)
system.iobus.respLayer3.utilization               0.0                       # Layer utilization (%)
system.iobus.reqLayer20.occupancy             1246175                       # Layer occupancy (ticks)
system.iobus.reqLayer20.utilization               0.0                       # Layer utilization (%)

---------- End Simulation Statistics   ----------
