
---------- Begin Simulation Statistics ----------
final_tick                               102330294949001                       # Number of ticks from beginning of simulation (restored from checkpoints and never reset)
host_inst_rate                                1161479                       # Simulator instruction rate (inst/s)
host_mem_usage                                1492856                       # Number of bytes of host memory used
host_op_rate                                  1253790                       # Simulator op (including micro ops) rate (op/s)
host_seconds                                  5122.32                       # Real time elapsed on the host
host_tick_rate                              111349430                       # Simulator tick rate (ticks/s)
sim_freq                                 1000000000000                       # Frequency of simulated ticks
sim_insts                                  5949463128                       # Number of instructions simulated
sim_ops                                    6422308256                       # Number of ops (including micro ops) simulated
sim_seconds                                  0.570367                       # Number of seconds simulated
sim_ticks                                570366873501                       # Number of ticks simulated
system.cpu0.committedInsts                          0                       # Number of instructions committed
system.cpu0.dtb.rdAccesses                          0                       # TLB accesses on read requests
system.cpu0.dtb.rdMisses                            0                       # TLB misses on read requests
system.cpu0.dtb.wrAccesses                          0                       # TLB accesses on write requests
system.cpu0.dtb.wrMisses                            0                       # TLB misses on write requests
system.cpu0.itb.rdAccesses                          0                       # TLB accesses on read requests
system.cpu0.itb.rdMisses                            0                       # TLB misses on read requests
system.cpu0.itb.wrAccesses                          0                       # TLB accesses on write requests
system.cpu0.itb.wrMisses                            0                       # TLB misses on write requests
system.cpu0.kern.inst.arm                           0                       # number of arm instructions executed
system.cpu0.kern.inst.quiesce                       0                       # number of quiesce instructions executed
system.cpu0.numCoalescedMMIO                        0                       # number of coalesced memory mapped IO requests
system.cpu0.numCycles                               0                       # number of cpu cycles simulated
system.cpu0.numExitSignal                           0                       # exits due to signal delivery
system.cpu0.numHalt                                 0                       # number of VM exits due to wait for interrupt instructions
system.cpu0.numHypercalls                           0                       # number of hypercalls
system.cpu0.numIO                                   0                       # number of VM exits due to legacy IO
system.cpu0.numInterrupts                           0                       # number of interrupts delivered
system.cpu0.numMMIO                                 0                       # number of VM exits due to memory mapped IO
system.cpu0.numVMExits                              0                       # total number of KVM exits
system.cpu0.numVMHalfEntries                        0                       # number of KVM entries to finalize pending operations
system.cpu0.numWorkItemsCompleted                   0                       # number of work items this cpu completed
system.cpu0.numWorkItemsStarted                     0                       # number of work items this cpu started
system.cpu1.committedInsts                          0                       # Number of instructions committed
system.cpu1.dtb.rdAccesses                          0                       # TLB accesses on read requests
system.cpu1.dtb.rdMisses                            0                       # TLB misses on read requests
system.cpu1.dtb.wrAccesses                          0                       # TLB accesses on write requests
system.cpu1.dtb.wrMisses                            0                       # TLB misses on write requests
system.cpu1.itb.rdAccesses                          0                       # TLB accesses on read requests
system.cpu1.itb.rdMisses                            0                       # TLB misses on read requests
system.cpu1.itb.wrAccesses                          0                       # TLB accesses on write requests
system.cpu1.itb.wrMisses                            0                       # TLB misses on write requests
system.cpu1.kern.inst.arm                           0                       # number of arm instructions executed
system.cpu1.kern.inst.quiesce                       0                       # number of quiesce instructions executed
system.cpu1.numCoalescedMMIO                        0                       # number of coalesced memory mapped IO requests
system.cpu1.numCycles                               0                       # number of cpu cycles simulated
system.cpu1.numExitSignal                           0                       # exits due to signal delivery
system.cpu1.numHalt                                 0                       # number of VM exits due to wait for interrupt instructions
system.cpu1.numHypercalls                           0                       # number of hypercalls
system.cpu1.numIO                                   0                       # number of VM exits due to legacy IO
system.cpu1.numInterrupts                           0                       # number of interrupts delivered
system.cpu1.numMMIO                                 0                       # number of VM exits due to memory mapped IO
system.cpu1.numVMExits                              0                       # total number of KVM exits
system.cpu1.numVMHalfEntries                        0                       # number of KVM entries to finalize pending operations
system.cpu1.numWorkItemsCompleted                   0                       # number of work items this cpu completed
system.cpu1.numWorkItemsStarted                     0                       # number of work items this cpu started
system.cpu2.committedInsts                          0                       # Number of instructions committed
system.cpu2.dtb.rdAccesses                          0                       # TLB accesses on read requests
system.cpu2.dtb.rdMisses                            0                       # TLB misses on read requests
system.cpu2.dtb.wrAccesses                          0                       # TLB accesses on write requests
system.cpu2.dtb.wrMisses                            0                       # TLB misses on write requests
system.cpu2.itb.rdAccesses                          0                       # TLB accesses on read requests
system.cpu2.itb.rdMisses                            0                       # TLB misses on read requests
system.cpu2.itb.wrAccesses                          0                       # TLB accesses on write requests
system.cpu2.itb.wrMisses                            0                       # TLB misses on write requests
system.cpu2.kern.inst.arm                           0                       # number of arm instructions executed
system.cpu2.kern.inst.quiesce                       0                       # number of quiesce instructions executed
system.cpu2.numCoalescedMMIO                        0                       # number of coalesced memory mapped IO requests
system.cpu2.numCycles                               0                       # number of cpu cycles simulated
system.cpu2.numExitSignal                           0                       # exits due to signal delivery
system.cpu2.numHalt                                 0                       # number of VM exits due to wait for interrupt instructions
system.cpu2.numHypercalls                           0                       # number of hypercalls
system.cpu2.numIO                                   0                       # number of VM exits due to legacy IO
system.cpu2.numInterrupts                           0                       # number of interrupts delivered
system.cpu2.numMMIO                                 0                       # number of VM exits due to memory mapped IO
system.cpu2.numVMExits                              0                       # total number of KVM exits
system.cpu2.numVMHalfEntries                        0                       # number of KVM entries to finalize pending operations
system.cpu2.numWorkItemsCompleted                   0                       # number of work items this cpu completed
system.cpu2.numWorkItemsStarted                     0                       # number of work items this cpu started
system.cpu3.committedInsts                          0                       # Number of instructions committed
system.cpu3.dtb.rdAccesses                          0                       # TLB accesses on read requests
system.cpu3.dtb.rdMisses                            0                       # TLB misses on read requests
system.cpu3.dtb.wrAccesses                          0                       # TLB accesses on write requests
system.cpu3.dtb.wrMisses                            0                       # TLB misses on write requests
system.cpu3.itb.rdAccesses                          0                       # TLB accesses on read requests
system.cpu3.itb.rdMisses                            0                       # TLB misses on read requests
system.cpu3.itb.wrAccesses                          0                       # TLB accesses on write requests
system.cpu3.itb.wrMisses                            0                       # TLB misses on write requests
system.cpu3.kern.inst.arm                           0                       # number of arm instructions executed
system.cpu3.kern.inst.quiesce                       0                       # number of quiesce instructions executed
system.cpu3.numCoalescedMMIO                        0                       # number of coalesced memory mapped IO requests
system.cpu3.numCycles                               0                       # number of cpu cycles simulated
system.cpu3.numExitSignal                           0                       # exits due to signal delivery
system.cpu3.numHalt                                 0                       # number of VM exits due to wait for interrupt instructions
system.cpu3.numHypercalls                           0                       # number of hypercalls
system.cpu3.numIO                                   0                       # number of VM exits due to legacy IO
system.cpu3.numInterrupts                           0                       # number of interrupts delivered
system.cpu3.numMMIO                                 0                       # number of VM exits due to memory mapped IO
system.cpu3.numVMExits                              0                       # total number of KVM exits
system.cpu3.numVMHalfEntries                        0                       # number of KVM entries to finalize pending operations
system.cpu3.numWorkItemsCompleted                   0                       # number of work items this cpu completed
system.cpu3.numWorkItemsStarted                     0                       # number of work items this cpu started
system.pc.south_bridge.ide.disks.dma_read_bytes       262144                       # Number of bytes transfered via DMA reads (not PRD).
system.pc.south_bridge.ide.disks.dma_read_full_pages           64                       # Number of full page size DMA reads (not PRD).
system.pc.south_bridge.ide.disks.dma_read_txs           64                       # Number of DMA read transactions (not PRD).
system.pc.south_bridge.ide.disks.dma_write_bytes       114688                       # Number of bytes transfered via DMA writes.
system.pc.south_bridge.ide.disks.dma_write_full_pages           28                       # Number of full page size DMA writes.
system.pc.south_bridge.ide.disks.dma_write_txs           28                       # Number of DMA write transactions.
system.ruby.DMA_Controller.I.allocI_load |        4106    100.00%    100.00% |           0      0.00%    100.00%
system.ruby.DMA_Controller.I.allocI_load::total         4106                      
system.ruby.DMA_Controller.I.allocI_store |        1792    100.00%    100.00% |           0      0.00%    100.00%
system.ruby.DMA_Controller.I.allocI_store::total         1792                      
system.ruby.DMA_Controller.I.deallocfwdfrom_in |        4874    100.00%    100.00% |           0      0.00%    100.00%
system.ruby.DMA_Controller.I.deallocfwdfrom_in::total         4874                      
system.ruby.DMA_Controller.M.allocTBE    |         769    100.00%    100.00% |           0      0.00%    100.00%
system.ruby.DMA_Controller.M.allocTBE::total          769                      
system.ruby.DMA_Controller.M.externalstoreMrespfrom_in |        1792    100.00%    100.00% |           0      0.00%    100.00%
system.ruby.DMA_Controller.M.externalstoreMrespfrom_in::total         1792                      
system.ruby.DMA_Controller.M_evict.Stallmandatory_in |       46465    100.00%    100.00% |           0      0.00%    100.00%
system.ruby.DMA_Controller.M_evict.Stallmandatory_in::total        46465                      
system.ruby.DMA_Controller.S.SloadSEvent |          56    100.00%    100.00% |           0      0.00%    100.00%
system.ruby.DMA_Controller.S.SloadSEvent::total           56                      
system.ruby.DMA_Controller.S.allocTBE    |        4102    100.00%    100.00% |           0      0.00%    100.00%
system.ruby.DMA_Controller.S.allocTBE::total         4102                      
system.ruby.DMA_Controller.S.externalloadSrespfrom_in |        4106    100.00%    100.00% |           0      0.00%    100.00%
system.ruby.DMA_Controller.S.externalloadSrespfrom_in::total         4106                      
system.ruby.DMA_Controller.S_evict.Stallmandatory_in |      173041    100.00%    100.00% |           0      0.00%    100.00%
system.ruby.DMA_Controller.S_evict.Stallmandatory_in::total       173041                      
system.ruby.DMA_Controller.SloadSEvent   |          56    100.00%    100.00% |           0      0.00%    100.00%
system.ruby.DMA_Controller.SloadSEvent::total           56                      
system.ruby.DMA_Controller.Stallmandatory_in |      219506    100.00%    100.00% |           0      0.00%    100.00%
system.ruby.DMA_Controller.Stallmandatory_in::total       219506                      
system.ruby.DMA_Controller.allocI_load   |        4106    100.00%    100.00% |           0      0.00%    100.00%
system.ruby.DMA_Controller.allocI_load::total         4106                      
system.ruby.DMA_Controller.allocI_store  |        1792    100.00%    100.00% |           0      0.00%    100.00%
system.ruby.DMA_Controller.allocI_store::total         1792                      
system.ruby.DMA_Controller.allocTBE      |        4871    100.00%    100.00% |           0      0.00%    100.00%
system.ruby.DMA_Controller.allocTBE::total         4871                      
system.ruby.DMA_Controller.deallocfwdfrom_in |        4874    100.00%    100.00% |           0      0.00%    100.00%
system.ruby.DMA_Controller.deallocfwdfrom_in::total         4874                      
system.ruby.DMA_Controller.externalloadSrespfrom_in |        4106    100.00%    100.00% |           0      0.00%    100.00%
system.ruby.DMA_Controller.externalloadSrespfrom_in::total         4106                      
system.ruby.DMA_Controller.externalstoreMrespfrom_in |        1792    100.00%    100.00% |           0      0.00%    100.00%
system.ruby.DMA_Controller.externalstoreMrespfrom_in::total         1792                      
system.ruby.Directory_Controller.I.deallocTBE |     1335831     25.18%     25.18% |     1325430     24.99%     50.17% |     1316700     24.82%     74.99% |     1326892     25.01%    100.00%
system.ruby.Directory_Controller.I.deallocTBE::total      5304853                      
system.ruby.Directory_Controller.I_GetML1C1_0.Progress |       98401     24.92%     24.92% |       95157     24.10%     49.02% |      100622     25.49%     74.51% |      100642     25.49%    100.00%
system.ruby.Directory_Controller.I_GetML1C1_0.Progress::total       394822                      
system.ruby.Directory_Controller.I_GetML1C1_0.Stallreqto_in |        2783     36.09%     36.09% |        1792     23.24%     59.33% |        3136     40.67%    100.00% |           0      0.00%    100.00%
system.ruby.Directory_Controller.I_GetML1C1_0.Stallreqto_in::total         7711                      
system.ruby.Directory_Controller.I_GetSL1C1_0.Progress |     1238293     25.20%     25.20% |     1231147     25.06%     50.26% |     1216939     24.77%     75.03% |     1227096     24.97%    100.00%
system.ruby.Directory_Controller.I_GetSL1C1_0.Progress::total      4913475                      
system.ruby.Directory_Controller.I_GetSL1C1_0.Stallreqto_in |      966818     23.57%     23.57% |     1117515     27.24%     50.80% |      955153     23.28%     74.09% |     1063163     25.91%    100.00%
system.ruby.Directory_Controller.I_GetSL1C1_0.Stallreqto_in::total      4102649                      
system.ruby.Directory_Controller.M.allocTBE |        9646     32.69%     32.69% |        5994     20.31%     53.00% |        6324     21.43%     74.42% |        7548     25.58%    100.00%
system.ruby.Directory_Controller.M.allocTBE::total        29512                      
system.ruby.Directory_Controller.M.deallocTBE |      935386     25.01%     25.01% |      930726     24.89%     49.90% |      937510     25.07%     74.98% |      935733     25.02%    100.00%
system.ruby.Directory_Controller.M.deallocTBE::total      3739355                      
system.ruby.Directory_Controller.M_GetM.Progress |        2069     38.41%     38.41% |        1279     23.75%     62.16% |        1185     22.00%     84.16% |         853     15.84%    100.00%
system.ruby.Directory_Controller.M_GetM.Progress::total         5386                      
system.ruby.Directory_Controller.M_GetM.Stallreqto_in |        1760     23.05%     23.05% |        1693     22.17%     45.23% |        1369     17.93%     63.16% |        2813     36.84%    100.00%
system.ruby.Directory_Controller.M_GetM.Stallreqto_in::total         7635                      
system.ruby.Directory_Controller.M_GetS.Progress |        7577     31.41%     31.41% |        4715     19.54%     50.95% |        5139     21.30%     72.25% |        6695     27.75%    100.00%
system.ruby.Directory_Controller.M_GetS.Progress::total        24126                      
system.ruby.Directory_Controller.M_GetS.Stallreqto_in |       38010     18.78%     18.78% |       53460     26.42%     45.20% |       28397     14.03%     59.23% |       82511     40.77%    100.00%
system.ruby.Directory_Controller.M_GetS.Stallreqto_in::total       202378                      
system.ruby.Directory_Controller.M_GetS_WBL1C1_0.Progress |        7577     31.41%     31.41% |        4715     19.54%     50.95% |        5139     21.30%     72.25% |        6695     27.75%    100.00%
system.ruby.Directory_Controller.M_GetS_WBL1C1_0.Progress::total        24126                      
system.ruby.Directory_Controller.M_GetS_WBL1C1_0.Stallreqto_in |       89620     30.22%     30.22% |       87895     29.64%     59.87% |       28968      9.77%     69.64% |       90030     30.36%    100.00%
system.ruby.Directory_Controller.M_GetS_WBL1C1_0.Stallreqto_in::total       296513                      
system.ruby.Directory_Controller.M_PutML1C1_0.Progress |      925394     24.95%     24.95% |      924369     24.93%     49.88% |      930816     25.10%     74.98% |      927832     25.02%    100.00%
system.ruby.Directory_Controller.M_PutML1C1_0.Progress::total      3708411                      
system.ruby.Directory_Controller.M_PutML1C1_0.Stallreqto_in |           0      0.00%      0.00% |           0      0.00%      0.00% |         512    100.00%    100.00% |           0      0.00%    100.00%
system.ruby.Directory_Controller.M_PutML1C1_0.Stallreqto_in::total          512                      
system.ruby.Directory_Controller.Progress |     3384542     25.24%     25.24% |     3344307     24.94%     50.17% |     3342076     24.92%     75.09% |     3340839     24.91%    100.00%
system.ruby.Directory_Controller.Progress::total     13411764                      
system.ruby.Directory_Controller.S.allocTBE |      834915     25.00%     25.00% |      834290     24.99%     49.99% |      835703     25.03%     75.02% |      834238     24.98%    100.00%
system.ruby.Directory_Controller.S.allocTBE::total      3339146                      
system.ruby.Directory_Controller.S.deallocTBE |     1789026     25.73%     25.73% |     1735878     24.97%     50.70% |     1717544     24.70%     75.41% |     1709795     24.59%    100.00%
system.ruby.Directory_Controller.S.deallocTBE::total      6952243                      
system.ruby.Directory_Controller.S_GetM.Stallreqto_in |      163114     18.33%     18.33% |      127928     14.38%     32.71% |      434582     48.84%     81.55% |      164170     18.45%    100.00%
system.ruby.Directory_Controller.S_GetM.Stallreqto_in::total       889794                      
system.ruby.Directory_Controller.S_GetM.deallocTBE |        4387     36.77%     36.77% |        1710     14.33%     51.10% |        2141     17.94%     69.04% |        3694     30.96%    100.00%
system.ruby.Directory_Controller.S_GetM.deallocTBE::total        11932                      
system.ruby.Directory_Controller.S_GetML1C1_0.Progress |        3841     35.93%     35.93% |        1395     13.05%     48.98% |        2055     19.23%     68.21% |        3398     31.79%    100.00%
system.ruby.Directory_Controller.S_GetML1C1_0.Progress::total        10689                      
system.ruby.Directory_Controller.S_GetML1C1_0.Stallreqto_in |        5856     32.14%     32.14% |        3165     17.37%     49.51% |        1952     10.71%     60.22% |        7249     39.78%    100.00%
system.ruby.Directory_Controller.S_GetML1C1_0.Stallreqto_in::total        18222                      
system.ruby.Directory_Controller.S_GetML1C1_1.Progress |         546     43.93%     43.93% |         315     25.34%     69.27% |          86      6.92%     76.19% |         296     23.81%    100.00%
system.ruby.Directory_Controller.S_GetML1C1_1.Progress::total         1243                      
system.ruby.Directory_Controller.S_GetML1C1_1.Stallreqto_in |         543     37.81%     37.81% |           0      0.00%     37.81% |         893     62.19%    100.00% |           0      0.00%    100.00%
system.ruby.Directory_Controller.S_GetML1C1_1.Stallreqto_in::total         1436                      
system.ruby.Directory_Controller.S_GetML1C1_3.Progress |      830528     24.96%     24.96% |      832580     25.02%     49.99% |      833562     25.05%     75.04% |      830544     24.96%    100.00%
system.ruby.Directory_Controller.S_GetML1C1_3.Progress::total      3327214                      
system.ruby.Directory_Controller.S_GetML1C1_3.Stallreqto_in |           0      0.00%      0.00% |           0      0.00%      0.00% |        1024    100.00%    100.00% |           0      0.00%    100.00%
system.ruby.Directory_Controller.S_GetML1C1_3.Stallreqto_in::total         1024                      
system.ruby.Directory_Controller.S_GetSL1C1_0.Progress |      270316     26.97%     26.97% |      248635     24.81%     51.78% |      246533     24.60%     76.37% |      236788     23.63%    100.00%
system.ruby.Directory_Controller.S_GetSL1C1_0.Progress::total      1002272                      
system.ruby.Directory_Controller.S_GetSL1C1_0.Stallreqto_in |     1219904     33.50%     33.50% |      867986     23.84%     57.34% |      850211     23.35%     80.69% |      703131     19.31%    100.00%
system.ruby.Directory_Controller.S_GetSL1C1_0.Stallreqto_in::total      3641232                      
system.ruby.Directory_Controller.Stallreqto_in |     2488408     27.14%     27.14% |     2261434     24.66%     51.80% |     2306197     25.15%     76.95% |     2113067     23.05%    100.00%
system.ruby.Directory_Controller.Stallreqto_in::total      9169106                      
system.ruby.Directory_Controller.allocTBE |      844561     25.07%     25.07% |      840284     24.94%     50.02% |      842027     25.00%     75.01% |      841786     24.99%    100.00%
system.ruby.Directory_Controller.allocTBE::total      3368658                      
system.ruby.Directory_Controller.deallocTBE |     4064630     25.39%     25.39% |     3993744     24.95%     50.34% |     3973895     24.82%     75.16% |     3976114     24.84%    100.00%
system.ruby.Directory_Controller.deallocTBE::total     16008383                      
system.ruby.IFETCH.hit_latency_hist_seqr::bucket_size            1                      
system.ruby.IFETCH.hit_latency_hist_seqr::max_bucket            9                      
system.ruby.IFETCH.hit_latency_hist_seqr::samples   1155790103                      
system.ruby.IFETCH.hit_latency_hist_seqr |  1155790103    100.00%    100.00% |           0      0.00%    100.00% |           0      0.00%    100.00% |           0      0.00%    100.00% |           0      0.00%    100.00% |           0      0.00%    100.00% |           0      0.00%    100.00% |           0      0.00%    100.00% |           0      0.00%    100.00% |           0      0.00%    100.00%
system.ruby.IFETCH.hit_latency_hist_seqr::total   1155790103                      
system.ruby.IFETCH.latency_hist_seqr::bucket_size            1                      
system.ruby.IFETCH.latency_hist_seqr::max_bucket            9                      
system.ruby.IFETCH.latency_hist_seqr::samples   1156812673                      
system.ruby.IFETCH.latency_hist_seqr     |  1156812673    100.00%    100.00% |           0      0.00%    100.00% |           0      0.00%    100.00% |           0      0.00%    100.00% |           0      0.00%    100.00% |           0      0.00%    100.00% |           0      0.00%    100.00% |           0      0.00%    100.00% |           0      0.00%    100.00% |           0      0.00%    100.00%
system.ruby.IFETCH.latency_hist_seqr::total   1156812673                      
system.ruby.IFETCH.miss_latency_hist_seqr::bucket_size            1                      
system.ruby.IFETCH.miss_latency_hist_seqr::max_bucket            9                      
system.ruby.IFETCH.miss_latency_hist_seqr::samples      1022570                      
system.ruby.IFETCH.miss_latency_hist_seqr |     1022570    100.00%    100.00% |           0      0.00%    100.00% |           0      0.00%    100.00% |           0      0.00%    100.00% |           0      0.00%    100.00% |           0      0.00%    100.00% |           0      0.00%    100.00% |           0      0.00%    100.00% |           0      0.00%    100.00% |           0      0.00%    100.00%
system.ruby.IFETCH.miss_latency_hist_seqr::total      1022570                      
system.ruby.L1Cache_Controller.I.allocI_load |     1508780     25.42%     25.42% |     1566387     26.39%     51.81% |     1469636     24.76%     76.57% |     1390964     23.43%    100.00%
system.ruby.L1Cache_Controller.I.allocI_load::total      5935767                      
system.ruby.L1Cache_Controller.I.allocI_store |      116188     29.07%     29.07% |      103818     25.98%     55.05% |      101225     25.33%     80.38% |       78389     19.62%    100.00%
system.ruby.L1Cache_Controller.I.allocI_store::total       399620                      
system.ruby.L1Cache_Controller.I.deallocfwdfrom_in |     1623964     25.65%     25.65% |     1669200     26.36%     52.01% |     1569849     24.79%     76.81% |     1468355     23.19%    100.00%
system.ruby.L1Cache_Controller.I.deallocfwdfrom_in::total      6331368                      
system.ruby.L1Cache_Controller.I_store.Progress |        1148     61.03%     61.03% |         289     15.36%     76.40% |         221     11.75%     88.14% |         223     11.86%    100.00%
system.ruby.L1Cache_Controller.I_store.Progress::total         1881                      
system.ruby.L1Cache_Controller.I_store.Stallfwdfrom_in |        1216     26.71%     26.71% |         884     19.42%     46.13% |        1128     24.78%     70.91% |        1324     29.09%    100.00%
system.ruby.L1Cache_Controller.I_store.Stallfwdfrom_in::total         4552                      
system.ruby.L1Cache_Controller.M.MloadMEvent |    31217127     25.13%     25.13% |    30776672     24.78%     49.90% |    30884653     24.86%     74.77% |    31345652     25.23%    100.00%
system.ruby.L1Cache_Controller.M.MloadMEvent::total    124224104                      
system.ruby.L1Cache_Controller.M.MstoreMEvent |    15973176     24.01%     24.01% |    18034111     27.10%     51.11% |    15738416     23.65%     74.76% |    16791226     25.24%    100.00%
system.ruby.L1Cache_Controller.M.MstoreMEvent::total     66536929                      
system.ruby.L1Cache_Controller.M.allocTBE |      956287     25.79%     25.79% |      979509     26.42%     52.21% |      905922     24.43%     76.64% |      865925     23.36%    100.00%
system.ruby.L1Cache_Controller.M.allocTBE::total      3707643                      
system.ruby.L1Cache_Controller.M.externalstoreMrespfrom_in |      967214     25.88%     25.88% |      986702     26.40%     52.28% |      912220     24.41%     76.68% |      871426     23.32%    100.00%
system.ruby.L1Cache_Controller.M.externalstoreMrespfrom_in::total      3737562                      
system.ruby.L1Cache_Controller.M_evict.Progress |      956287     25.79%     25.79% |      979509     26.42%     52.21% |      905922     24.43%     76.64% |      865925     23.36%    100.00%
system.ruby.L1Cache_Controller.M_evict.Progress::total      3707643                      
system.ruby.L1Cache_Controller.M_evict.Stallmandatory_in |   155031713     25.79%     25.79% |   158790095     26.42%     52.22% |   146856107     24.43%     76.65% |   140337137     23.35%    100.00%
system.ruby.L1Cache_Controller.M_evict.Stallmandatory_in::total    601015052                      
system.ruby.L1Cache_Controller.M_evict_x_I.Progress |           0      0.00%      0.00% |           0      0.00%      0.00% |           1    100.00%    100.00% |           0      0.00%    100.00%
system.ruby.L1Cache_Controller.M_evict_x_I.Progress::total            1                      
system.ruby.L1Cache_Controller.M_evict_x_I.Stallmandatory_in |           0      0.00%      0.00% |           0      0.00%      0.00% |         111    100.00%    100.00% |           0      0.00%    100.00%
system.ruby.L1Cache_Controller.M_evict_x_I.Stallmandatory_in::total          111                      
system.ruby.L1Cache_Controller.MloadMEvent |    31217127     25.13%     25.13% |    30776672     24.78%     49.90% |    30884653     24.86%     74.77% |    31345652     25.23%    100.00%
system.ruby.L1Cache_Controller.MloadMEvent::total    124224104                      
system.ruby.L1Cache_Controller.MstoreMEvent |    15973176     24.01%     24.01% |    18034111     27.10%     51.11% |    15738416     23.65%     74.76% |    16791226     25.24%    100.00%
system.ruby.L1Cache_Controller.MstoreMEvent::total     66536929                      
system.ruby.L1Cache_Controller.Progress  |     2474664     25.61%     25.61% |     2551299     26.40%     52.01% |     2378056     24.61%     76.61% |     2259988     23.39%    100.00%
system.ruby.L1Cache_Controller.Progress::total      9664007                      
system.ruby.L1Cache_Controller.S.SloadSEvent |   313375885     24.70%     24.70% |   307985258     24.28%     48.98% |   320419183     25.26%     74.23% |   326925552     25.77%    100.00%
system.ruby.L1Cache_Controller.S.SloadSEvent::total   1268705878                      
system.ruby.L1Cache_Controller.S.allocTBE |     1513588     25.47%     25.47% |     1568881     26.40%     51.87% |     1468918     24.72%     76.59% |     1391265     23.41%    100.00%
system.ruby.L1Cache_Controller.S.allocTBE::total      5942652                      
system.ruby.L1Cache_Controller.S.deallocTBE |        9253     38.35%     38.35% |        5921     24.54%     62.89% |        4707     19.51%     82.40% |        4245     17.60%    100.00%
system.ruby.L1Cache_Controller.S.deallocTBE::total        24126                      
system.ruby.L1Cache_Controller.S.externalloadSrespfrom_in |     1508780     25.42%     25.42% |     1566387     26.39%     51.81% |     1469636     24.76%     76.57% |     1390963     23.43%    100.00%
system.ruby.L1Cache_Controller.S.externalloadSrespfrom_in::total      5935766                      
system.ruby.L1Cache_Controller.S_evict.Progress |      662562     25.44%     25.44% |      685997     26.34%     51.77% |      657923     25.26%     77.03% |      598228     22.97%    100.00%
system.ruby.L1Cache_Controller.S_evict.Progress::total      2604710                      
system.ruby.L1Cache_Controller.S_evict.Stallmandatory_in |    54088686     25.32%     25.32% |    56287976     26.34%     51.66% |    54102112     25.32%     76.98% |    49180308     23.02%    100.00%
system.ruby.L1Cache_Controller.S_evict.Stallmandatory_in::total    213659082                      
system.ruby.L1Cache_Controller.S_store.Progress |      854667     25.51%     25.51% |      885504     26.43%     51.95% |      813989     24.30%     76.25% |      795612     23.75%    100.00%
system.ruby.L1Cache_Controller.S_store.Progress::total      3349772                      
system.ruby.L1Cache_Controller.S_store.Stallfwdfrom_in |          84    100.00%    100.00% |           0      0.00%    100.00% |           0      0.00%    100.00% |           0      0.00%    100.00%
system.ruby.L1Cache_Controller.S_store.Stallfwdfrom_in::total           84                      
system.ruby.L1Cache_Controller.SloadSEvent |   313375885     24.70%     24.70% |   307985258     24.28%     48.98% |   320419183     25.26%     74.23% |   326925552     25.77%    100.00%
system.ruby.L1Cache_Controller.SloadSEvent::total   1268705878                      
system.ruby.L1Cache_Controller.Stallfwdfrom_in |        1300     28.04%     28.04% |         884     19.07%     47.11% |        1128     24.33%     71.44% |        1324     28.56%    100.00%
system.ruby.L1Cache_Controller.Stallfwdfrom_in::total         4636                      
system.ruby.L1Cache_Controller.Stallmandatory_in |   209120399     25.67%     25.67% |   215078071     26.40%     52.07% |   200958330     24.67%     76.74% |   189517445     23.26%    100.00%
system.ruby.L1Cache_Controller.Stallmandatory_in::total    814674245                      
system.ruby.L1Cache_Controller.allocI_load |     1508780     25.42%     25.42% |     1566387     26.39%     51.81% |     1469636     24.76%     76.57% |     1390964     23.43%    100.00%
system.ruby.L1Cache_Controller.allocI_load::total      5935767                      
system.ruby.L1Cache_Controller.allocI_store |      116188     29.07%     29.07% |      103818     25.98%     55.05% |      101225     25.33%     80.38% |       78389     19.62%    100.00%
system.ruby.L1Cache_Controller.allocI_store::total       399620                      
system.ruby.L1Cache_Controller.allocTBE  |     2469875     25.59%     25.59% |     2548390     26.41%     52.00% |     2374840     24.61%     76.61% |     2257190     23.39%    100.00%
system.ruby.L1Cache_Controller.allocTBE::total      9650295                      
system.ruby.L1Cache_Controller.deallocTBE |        9253     38.35%     38.35% |        5921     24.54%     62.89% |        4707     19.51%     82.40% |        4245     17.60%    100.00%
system.ruby.L1Cache_Controller.deallocTBE::total        24126                      
system.ruby.L1Cache_Controller.deallocfwdfrom_in |     1623964     25.65%     25.65% |     1669200     26.36%     52.01% |     1569849     24.79%     76.81% |     1468355     23.19%    100.00%
system.ruby.L1Cache_Controller.deallocfwdfrom_in::total      6331368                      
system.ruby.L1Cache_Controller.externalloadSrespfrom_in |     1508780     25.42%     25.42% |     1566387     26.39%     51.81% |     1469636     24.76%     76.57% |     1390963     23.43%    100.00%
system.ruby.L1Cache_Controller.externalloadSrespfrom_in::total      5935766                      
system.ruby.L1Cache_Controller.externalstoreMrespfrom_in |      967214     25.88%     25.88% |      986702     26.40%     52.28% |      912220     24.41%     76.68% |      871426     23.32%    100.00%
system.ruby.L1Cache_Controller.externalstoreMrespfrom_in::total      3737562                      
system.ruby.LD.hit_latency_hist_seqr::bucket_size            1                      
system.ruby.LD.hit_latency_hist_seqr::max_bucket            9                      
system.ruby.LD.hit_latency_hist_seqr::samples    237139879                      
system.ruby.LD.hit_latency_hist_seqr     |   237139879    100.00%    100.00% |           0      0.00%    100.00% |           0      0.00%    100.00% |           0      0.00%    100.00% |           0      0.00%    100.00% |           0      0.00%    100.00% |           0      0.00%    100.00% |           0      0.00%    100.00% |           0      0.00%    100.00% |           0      0.00%    100.00%
system.ruby.LD.hit_latency_hist_seqr::total    237139879                      
system.ruby.LD.latency_hist_seqr::bucket_size            1                      
system.ruby.LD.latency_hist_seqr::max_bucket            9                      
system.ruby.LD.latency_hist_seqr::samples    242053075                      
system.ruby.LD.latency_hist_seqr         |   242053075    100.00%    100.00% |           0      0.00%    100.00% |           0      0.00%    100.00% |           0      0.00%    100.00% |           0      0.00%    100.00% |           0      0.00%    100.00% |           0      0.00%    100.00% |           0      0.00%    100.00% |           0      0.00%    100.00% |           0      0.00%    100.00%
system.ruby.LD.latency_hist_seqr::total     242053075                      
system.ruby.LD.miss_latency_hist_seqr::bucket_size            1                      
system.ruby.LD.miss_latency_hist_seqr::max_bucket            9                      
system.ruby.LD.miss_latency_hist_seqr::samples      4913196                      
system.ruby.LD.miss_latency_hist_seqr    |     4913196    100.00%    100.00% |           0      0.00%    100.00% |           0      0.00%    100.00% |           0      0.00%    100.00% |           0      0.00%    100.00% |           0      0.00%    100.00% |           0      0.00%    100.00% |           0      0.00%    100.00% |           0      0.00%    100.00% |           0      0.00%    100.00%
system.ruby.LD.miss_latency_hist_seqr::total      4913196                      
system.ruby.Locked_RMW_Read.hit_latency_hist_seqr::bucket_size            1                      
system.ruby.Locked_RMW_Read.hit_latency_hist_seqr::max_bucket            9                      
system.ruby.Locked_RMW_Read.hit_latency_hist_seqr::samples        42135                      
system.ruby.Locked_RMW_Read.hit_latency_hist_seqr |       42135    100.00%    100.00% |           0      0.00%    100.00% |           0      0.00%    100.00% |           0      0.00%    100.00% |           0      0.00%    100.00% |           0      0.00%    100.00% |           0      0.00%    100.00% |           0      0.00%    100.00% |           0      0.00%    100.00% |           0      0.00%    100.00%
system.ruby.Locked_RMW_Read.hit_latency_hist_seqr::total        42135                      
system.ruby.Locked_RMW_Read.latency_hist_seqr::bucket_size            1                      
system.ruby.Locked_RMW_Read.latency_hist_seqr::max_bucket            9                      
system.ruby.Locked_RMW_Read.latency_hist_seqr::samples        61796                      
system.ruby.Locked_RMW_Read.latency_hist_seqr |       61796    100.00%    100.00% |           0      0.00%    100.00% |           0      0.00%    100.00% |           0      0.00%    100.00% |           0      0.00%    100.00% |           0      0.00%    100.00% |           0      0.00%    100.00% |           0      0.00%    100.00% |           0      0.00%    100.00% |           0      0.00%    100.00%
system.ruby.Locked_RMW_Read.latency_hist_seqr::total        61796                      
system.ruby.Locked_RMW_Read.miss_latency_hist_seqr::bucket_size            1                      
system.ruby.Locked_RMW_Read.miss_latency_hist_seqr::max_bucket            9                      
system.ruby.Locked_RMW_Read.miss_latency_hist_seqr::samples        19661                      
system.ruby.Locked_RMW_Read.miss_latency_hist_seqr |       19661    100.00%    100.00% |           0      0.00%    100.00% |           0      0.00%    100.00% |           0      0.00%    100.00% |           0      0.00%    100.00% |           0      0.00%    100.00% |           0      0.00%    100.00% |           0      0.00%    100.00% |           0      0.00%    100.00% |           0      0.00%    100.00%
system.ruby.Locked_RMW_Read.miss_latency_hist_seqr::total        19661                      
system.ruby.Locked_RMW_Write.hit_latency_hist_seqr::bucket_size            1                      
system.ruby.Locked_RMW_Write.hit_latency_hist_seqr::max_bucket            9                      
system.ruby.Locked_RMW_Write.hit_latency_hist_seqr::samples        61796                      
system.ruby.Locked_RMW_Write.hit_latency_hist_seqr |       61796    100.00%    100.00% |           0      0.00%    100.00% |           0      0.00%    100.00% |           0      0.00%    100.00% |           0      0.00%    100.00% |           0      0.00%    100.00% |           0      0.00%    100.00% |           0      0.00%    100.00% |           0      0.00%    100.00% |           0      0.00%    100.00%
system.ruby.Locked_RMW_Write.hit_latency_hist_seqr::total        61796                      
system.ruby.Locked_RMW_Write.latency_hist_seqr::bucket_size            1                      
system.ruby.Locked_RMW_Write.latency_hist_seqr::max_bucket            9                      
system.ruby.Locked_RMW_Write.latency_hist_seqr::samples        61796                      
system.ruby.Locked_RMW_Write.latency_hist_seqr |       61796    100.00%    100.00% |           0      0.00%    100.00% |           0      0.00%    100.00% |           0      0.00%    100.00% |           0      0.00%    100.00% |           0      0.00%    100.00% |           0      0.00%    100.00% |           0      0.00%    100.00% |           0      0.00%    100.00% |           0      0.00%    100.00%
system.ruby.Locked_RMW_Write.latency_hist_seqr::total        61796                      
system.ruby.RMW_Read.hit_latency_hist_seqr::bucket_size            1                      
system.ruby.RMW_Read.hit_latency_hist_seqr::max_bucket            9                      
system.ruby.RMW_Read.hit_latency_hist_seqr::samples      2891153                      
system.ruby.RMW_Read.hit_latency_hist_seqr |     2891153    100.00%    100.00% |           0      0.00%    100.00% |           0      0.00%    100.00% |           0      0.00%    100.00% |           0      0.00%    100.00% |           0      0.00%    100.00% |           0      0.00%    100.00% |           0      0.00%    100.00% |           0      0.00%    100.00% |           0      0.00%    100.00%
system.ruby.RMW_Read.hit_latency_hist_seqr::total      2891153                      
system.ruby.RMW_Read.latency_hist_seqr::bucket_size            1                      
system.ruby.RMW_Read.latency_hist_seqr::max_bucket            9                      
system.ruby.RMW_Read.latency_hist_seqr::samples      2929371                      
system.ruby.RMW_Read.latency_hist_seqr   |     2929371    100.00%    100.00% |           0      0.00%    100.00% |           0      0.00%    100.00% |           0      0.00%    100.00% |           0      0.00%    100.00% |           0      0.00%    100.00% |           0      0.00%    100.00% |           0      0.00%    100.00% |           0      0.00%    100.00% |           0      0.00%    100.00%
system.ruby.RMW_Read.latency_hist_seqr::total      2929371                      
system.ruby.RMW_Read.miss_latency_hist_seqr::bucket_size            1                      
system.ruby.RMW_Read.miss_latency_hist_seqr::max_bucket            9                      
system.ruby.RMW_Read.miss_latency_hist_seqr::samples        38218                      
system.ruby.RMW_Read.miss_latency_hist_seqr |       38218    100.00%    100.00% |           0      0.00%    100.00% |           0      0.00%    100.00% |           0      0.00%    100.00% |           0      0.00%    100.00% |           0      0.00%    100.00% |           0      0.00%    100.00% |           0      0.00%    100.00% |           0      0.00%    100.00% |           0      0.00%    100.00%
system.ruby.RMW_Read.miss_latency_hist_seqr::total        38218                      
system.ruby.ST.hit_latency_hist_seqr::bucket_size            1                      
system.ruby.ST.hit_latency_hist_seqr::max_bucket            9                      
system.ruby.ST.hit_latency_hist_seqr::samples     63541845                      
system.ruby.ST.hit_latency_hist_seqr     |    63541845    100.00%    100.00% |           0      0.00%    100.00% |           0      0.00%    100.00% |           0      0.00%    100.00% |           0      0.00%    100.00% |           0      0.00%    100.00% |           0      0.00%    100.00% |           0      0.00%    100.00% |           0      0.00%    100.00% |           0      0.00%    100.00%
system.ruby.ST.hit_latency_hist_seqr::total     63541845                      
system.ruby.ST.latency_hist_seqr::bucket_size            1                      
system.ruby.ST.latency_hist_seqr::max_bucket            9                      
system.ruby.ST.latency_hist_seqr::samples     67221528                      
system.ruby.ST.latency_hist_seqr         |    67221528    100.00%    100.00% |           0      0.00%    100.00% |           0      0.00%    100.00% |           0      0.00%    100.00% |           0      0.00%    100.00% |           0      0.00%    100.00% |           0      0.00%    100.00% |           0      0.00%    100.00% |           0      0.00%    100.00% |           0      0.00%    100.00%
system.ruby.ST.latency_hist_seqr::total      67221528                      
system.ruby.ST.miss_latency_hist_seqr::bucket_size            1                      
system.ruby.ST.miss_latency_hist_seqr::max_bucket            9                      
system.ruby.ST.miss_latency_hist_seqr::samples      3679683                      
system.ruby.ST.miss_latency_hist_seqr    |     3679683    100.00%    100.00% |           0      0.00%    100.00% |           0      0.00%    100.00% |           0      0.00%    100.00% |           0      0.00%    100.00% |           0      0.00%    100.00% |           0      0.00%    100.00% |           0      0.00%    100.00% |           0      0.00%    100.00% |           0      0.00%    100.00%
system.ruby.ST.miss_latency_hist_seqr::total      3679683                      
system.ruby.dir_cntrl0.fully_busy_cycles        77770                       # cycles for which number of transistions == max transitions
system.ruby.dir_cntrl0.fwdFrom.avg_buf_msgs     0.008535                       # Average number of messages in buffer
system.ruby.dir_cntrl0.fwdFrom.avg_stall_time  2999.981444                       # Average number of cycles messages are stalled in this MB
system.ruby.dir_cntrl0.reqTo.avg_buf_msgs     0.003632                       # Average number of messages in buffer
system.ruby.dir_cntrl0.reqTo.avg_stall_time  5293.676162                       # Average number of cycles messages are stalled in this MB
system.ruby.dir_cntrl0.requestToMemory.avg_buf_msgs     0.002959                       # Average number of messages in buffer
system.ruby.dir_cntrl0.requestToMemory.avg_stall_time   500.006781                       # Average number of cycles messages are stalled in this MB
system.ruby.dir_cntrl0.respFrom.avg_buf_msgs     0.012850                       # Average number of messages in buffer
system.ruby.dir_cntrl0.respFrom.avg_stall_time  3000.213932                       # Average number of cycles messages are stalled in this MB
system.ruby.dir_cntrl0.respTo.avg_buf_msgs     0.000012                       # Average number of messages in buffer
system.ruby.dir_cntrl0.respTo.avg_stall_time 11390.935809                       # Average number of cycles messages are stalled in this MB
system.ruby.dir_cntrl0.responseFromMemory.avg_buf_msgs     0.005027                       # Average number of messages in buffer
system.ruby.dir_cntrl0.responseFromMemory.avg_stall_time   499.999941                       # Average number of cycles messages are stalled in this MB
system.ruby.dir_cntrl1.fully_busy_cycles        70681                       # cycles for which number of transistions == max transitions
system.ruby.dir_cntrl1.fwdFrom.avg_buf_msgs     0.008334                       # Average number of messages in buffer
system.ruby.dir_cntrl1.fwdFrom.avg_stall_time  2999.985029                       # Average number of cycles messages are stalled in this MB
system.ruby.dir_cntrl1.reqTo.avg_buf_msgs     0.003567                       # Average number of messages in buffer
system.ruby.dir_cntrl1.reqTo.avg_stall_time  5302.693223                       # Average number of cycles messages are stalled in this MB
system.ruby.dir_cntrl1.requestToMemory.avg_buf_msgs     0.002927                       # Average number of messages in buffer
system.ruby.dir_cntrl1.requestToMemory.avg_stall_time   500.007997                       # Average number of cycles messages are stalled in this MB
system.ruby.dir_cntrl1.respFrom.avg_buf_msgs     0.012679                       # Average number of messages in buffer
system.ruby.dir_cntrl1.respFrom.avg_stall_time  3000.285581                       # Average number of cycles messages are stalled in this MB
system.ruby.dir_cntrl1.respTo.avg_buf_msgs     0.000007                       # Average number of messages in buffer
system.ruby.dir_cntrl1.respTo.avg_stall_time 12306.321225                       # Average number of cycles messages are stalled in this MB
system.ruby.dir_cntrl1.responseFromMemory.avg_buf_msgs     0.004970                       # Average number of messages in buffer
system.ruby.dir_cntrl1.responseFromMemory.avg_stall_time   499.999876                       # Average number of cycles messages are stalled in this MB
system.ruby.dir_cntrl2.fully_busy_cycles        72077                       # cycles for which number of transistions == max transitions
system.ruby.dir_cntrl2.fwdFrom.avg_buf_msgs     0.008279                       # Average number of messages in buffer
system.ruby.dir_cntrl2.fwdFrom.avg_stall_time  2999.947632                       # Average number of cycles messages are stalled in this MB
system.ruby.dir_cntrl2.reqTo.avg_buf_msgs     0.003550                       # Average number of messages in buffer
system.ruby.dir_cntrl2.reqTo.avg_stall_time  5428.473667                       # Average number of cycles messages are stalled in this MB
system.ruby.dir_cntrl2.requestToMemory.avg_buf_msgs     0.002924                       # Average number of messages in buffer
system.ruby.dir_cntrl2.requestToMemory.avg_stall_time   500.005861                       # Average number of cycles messages are stalled in this MB
system.ruby.dir_cntrl2.respFrom.avg_buf_msgs     0.012638                       # Average number of messages in buffer
system.ruby.dir_cntrl2.respFrom.avg_stall_time  3000.472073                       # Average number of cycles messages are stalled in this MB
system.ruby.dir_cntrl2.respTo.avg_buf_msgs     0.000007                       # Average number of messages in buffer
system.ruby.dir_cntrl2.respTo.avg_stall_time 12221.204951                       # Average number of cycles messages are stalled in this MB
system.ruby.dir_cntrl2.responseFromMemory.avg_buf_msgs     0.004971                       # Average number of messages in buffer
system.ruby.dir_cntrl2.responseFromMemory.avg_stall_time   499.999741                       # Average number of cycles messages are stalled in this MB
system.ruby.dir_cntrl3.fully_busy_cycles        66047                       # cycles for which number of transistions == max transitions
system.ruby.dir_cntrl3.fwdFrom.avg_buf_msgs     0.008297                       # Average number of messages in buffer
system.ruby.dir_cntrl3.fwdFrom.avg_stall_time  2999.992877                       # Average number of cycles messages are stalled in this MB
system.ruby.dir_cntrl3.reqTo.avg_buf_msgs     0.003545                       # Average number of messages in buffer
system.ruby.dir_cntrl3.reqTo.avg_stall_time  5384.931461                       # Average number of cycles messages are stalled in this MB
system.ruby.dir_cntrl3.requestToMemory.avg_buf_msgs     0.002922                       # Average number of messages in buffer
system.ruby.dir_cntrl3.requestToMemory.avg_stall_time   500.006865                       # Average number of cycles messages are stalled in this MB
system.ruby.dir_cntrl3.respFrom.avg_buf_msgs     0.012638                       # Average number of messages in buffer
system.ruby.dir_cntrl3.respFrom.avg_stall_time  3000.466849                       # Average number of cycles messages are stalled in this MB
system.ruby.dir_cntrl3.respTo.avg_buf_msgs     0.000010                       # Average number of messages in buffer
system.ruby.dir_cntrl3.respTo.avg_stall_time 12866.047347                       # Average number of cycles messages are stalled in this MB
system.ruby.dir_cntrl3.responseFromMemory.avg_buf_msgs     0.004968                       # Average number of messages in buffer
system.ruby.dir_cntrl3.responseFromMemory.avg_stall_time   499.999808                       # Average number of cycles messages are stalled in this MB
system.ruby.dma_cntrl0.cache.demand_accesses            0                       # Number of cache demand accesses
system.ruby.dma_cntrl0.cache.demand_hits            0                       # Number of cache demand hits
system.ruby.dma_cntrl0.cache.demand_misses            0                       # Number of cache demand misses
system.ruby.dma_cntrl0.fully_busy_cycles        55966                       # cycles for which number of transistions == max transitions
system.ruby.dma_cntrl0.fwdFrom.avg_buf_msgs     0.000004                       # Average number of messages in buffer
system.ruby.dma_cntrl0.fwdFrom.avg_stall_time  5469.269961                       # Average number of cycles messages are stalled in this MB
system.ruby.dma_cntrl0.mandatoryQueue.avg_buf_msgs     0.003227                       # Average number of messages in buffer
system.ruby.dma_cntrl0.mandatoryQueue.avg_stall_time 903585.740504                       # Average number of cycles messages are stalled in this MB
system.ruby.dma_cntrl0.reqTo.avg_buf_msgs     0.000014                       # Average number of messages in buffer
system.ruby.dma_cntrl0.reqTo.avg_stall_time   497.084148                       # Average number of cycles messages are stalled in this MB
system.ruby.dma_cntrl0.respFrom.avg_buf_msgs     0.000005                       # Average number of messages in buffer
system.ruby.dma_cntrl0.respFrom.avg_stall_time 16302.095636                       # Average number of cycles messages are stalled in this MB
system.ruby.dma_cntrl0.respTo.avg_buf_msgs     0.000000                       # Average number of messages in buffer
system.ruby.dma_cntrl0.respTo.avg_stall_time   496.742424                       # Average number of cycles messages are stalled in this MB
system.ruby.hit_latency_hist_seqr::bucket_size            1                      
system.ruby.hit_latency_hist_seqr::max_bucket            9                      
system.ruby.hit_latency_hist_seqr::samples   1459466911                      
system.ruby.hit_latency_hist_seqr        |  1459466911    100.00%    100.00% |           0      0.00%    100.00% |           0      0.00%    100.00% |           0      0.00%    100.00% |           0      0.00%    100.00% |           0      0.00%    100.00% |           0      0.00%    100.00% |           0      0.00%    100.00% |           0      0.00%    100.00% |           0      0.00%    100.00%
system.ruby.hit_latency_hist_seqr::total   1459466911                      
system.ruby.io_controller.cache.demand_accesses            0                       # Number of cache demand accesses
system.ruby.io_controller.cache.demand_hits            0                       # Number of cache demand hits
system.ruby.io_controller.cache.demand_misses            0                       # Number of cache demand misses
system.ruby.l1_cntrl0.cache.demand_accesses            0                       # Number of cache demand accesses
system.ruby.l1_cntrl0.cache.demand_hits             0                       # Number of cache demand hits
system.ruby.l1_cntrl0.cache.demand_misses            0                       # Number of cache demand misses
system.ruby.l1_cntrl0.fully_busy_cycles      53090111                       # cycles for which number of transistions == max transitions
system.ruby.l1_cntrl0.fwdFrom.avg_buf_msgs    78.569711                       # Average number of messages in buffer
system.ruby.l1_cntrl0.fwdFrom.avg_stall_time  6504.646550                       # Average number of cycles messages are stalled in this MB
system.ruby.l1_cntrl0.mandatoryQueue.avg_buf_msgs     0.364996                       # Average number of messages in buffer
system.ruby.l1_cntrl0.mandatoryQueue.avg_stall_time  4039.534536                       # Average number of cycles messages are stalled in this MB
system.ruby.l1_cntrl0.reqTo.avg_buf_msgs     0.003590                       # Average number of messages in buffer
system.ruby.l1_cntrl0.reqTo.avg_stall_time   499.999999                       # Average number of cycles messages are stalled in this MB
system.ruby.l1_cntrl0.respFrom.avg_buf_msgs     0.002175                       # Average number of messages in buffer
system.ruby.l1_cntrl0.respFrom.avg_stall_time 16431.020375                       # Average number of cycles messages are stalled in this MB
system.ruby.l1_cntrl0.respTo.avg_buf_msgs     0.000035                       # Average number of messages in buffer
system.ruby.l1_cntrl0.respTo.avg_stall_time   859.360296                       # Average number of cycles messages are stalled in this MB
system.ruby.l1_cntrl1.cache.demand_accesses            0                       # Number of cache demand accesses
system.ruby.l1_cntrl1.cache.demand_hits             0                       # Number of cache demand hits
system.ruby.l1_cntrl1.cache.demand_misses            0                       # Number of cache demand misses
system.ruby.l1_cntrl1.fully_busy_cycles      54602679                       # cycles for which number of transistions == max transitions
system.ruby.l1_cntrl1.fwdFrom.avg_buf_msgs    44.940894                       # Average number of messages in buffer
system.ruby.l1_cntrl1.fwdFrom.avg_stall_time  6504.255773                       # Average number of cycles messages are stalled in this MB
system.ruby.l1_cntrl1.mandatoryQueue.avg_buf_msgs     0.363086                       # Average number of messages in buffer
system.ruby.l1_cntrl1.mandatoryQueue.avg_stall_time  4147.289595                       # Average number of cycles messages are stalled in this MB
system.ruby.l1_cntrl1.reqTo.avg_buf_msgs     0.003698                       # Average number of messages in buffer
system.ruby.l1_cntrl1.reqTo.avg_stall_time   499.915454                       # Average number of cycles messages are stalled in this MB
system.ruby.l1_cntrl1.respFrom.avg_buf_msgs     0.002241                       # Average number of messages in buffer
system.ruby.l1_cntrl1.respFrom.avg_stall_time 16510.107838                       # Average number of cycles messages are stalled in this MB
system.ruby.l1_cntrl1.respTo.avg_buf_msgs     0.000023                       # Average number of messages in buffer
system.ruby.l1_cntrl1.respTo.avg_stall_time   599.422504                       # Average number of cycles messages are stalled in this MB
system.ruby.l1_cntrl2.cache.demand_accesses            0                       # Number of cache demand accesses
system.ruby.l1_cntrl2.cache.demand_hits             0                       # Number of cache demand hits
system.ruby.l1_cntrl2.cache.demand_misses            0                       # Number of cache demand misses
system.ruby.l1_cntrl2.fully_busy_cycles      51021966                       # cycles for which number of transistions == max transitions
system.ruby.l1_cntrl2.fwdFrom.avg_buf_msgs    79.407343                       # Average number of messages in buffer
system.ruby.l1_cntrl2.fwdFrom.avg_stall_time  6494.751585                       # Average number of cycles messages are stalled in this MB
system.ruby.l1_cntrl2.mandatoryQueue.avg_buf_msgs     0.368781                       # Average number of messages in buffer
system.ruby.l1_cntrl2.mandatoryQueue.avg_stall_time  3910.272724                       # Average number of cycles messages are stalled in this MB
system.ruby.l1_cntrl2.reqTo.avg_buf_msgs     0.003459                       # Average number of messages in buffer
system.ruby.l1_cntrl2.reqTo.avg_stall_time   499.999999                       # Average number of cycles messages are stalled in this MB
system.ruby.l1_cntrl2.respFrom.avg_buf_msgs     0.002091                       # Average number of messages in buffer
system.ruby.l1_cntrl2.respFrom.avg_stall_time 16468.313498                       # Average number of cycles messages are stalled in this MB
system.ruby.l1_cntrl2.respTo.avg_buf_msgs     0.000023                       # Average number of messages in buffer
system.ruby.l1_cntrl2.respTo.avg_stall_time   537.486090                       # Average number of cycles messages are stalled in this MB
system.ruby.l1_cntrl3.cache.demand_accesses            0                       # Number of cache demand accesses
system.ruby.l1_cntrl3.cache.demand_hits             0                       # Number of cache demand hits
system.ruby.l1_cntrl3.cache.demand_misses            0                       # Number of cache demand misses
system.ruby.l1_cntrl3.fully_busy_cycles      48111891                       # cycles for which number of transistions == max transitions
system.ruby.l1_cntrl3.fwdFrom.avg_buf_msgs    71.883194                       # Average number of messages in buffer
system.ruby.l1_cntrl3.fwdFrom.avg_stall_time  6541.077827                       # Average number of cycles messages are stalled in this MB
system.ruby.l1_cntrl3.mandatoryQueue.avg_buf_msgs     0.373139                       # Average number of messages in buffer
system.ruby.l1_cntrl3.mandatoryQueue.avg_stall_time  3700.533549                       # Average number of cycles messages are stalled in this MB
system.ruby.l1_cntrl3.reqTo.avg_buf_msgs     0.003267                       # Average number of messages in buffer
system.ruby.l1_cntrl3.reqTo.avg_stall_time   499.998972                       # Average number of cycles messages are stalled in this MB
system.ruby.l1_cntrl3.respFrom.avg_buf_msgs     0.001986                       # Average number of messages in buffer
system.ruby.l1_cntrl3.respFrom.avg_stall_time 16478.599859                       # Average number of cycles messages are stalled in this MB
system.ruby.l1_cntrl3.respTo.avg_buf_msgs     0.000019                       # Average number of messages in buffer
system.ruby.l1_cntrl3.respTo.avg_stall_time   564.977985                       # Average number of cycles messages are stalled in this MB
system.ruby.latency_hist_seqr::bucket_size            1                      
system.ruby.latency_hist_seqr::max_bucket            9                      
system.ruby.latency_hist_seqr::samples     1469140239                      
system.ruby.latency_hist_seqr            |  1469140239    100.00%    100.00% |           0      0.00%    100.00% |           0      0.00%    100.00% |           0      0.00%    100.00% |           0      0.00%    100.00% |           0      0.00%    100.00% |           0      0.00%    100.00% |           0      0.00%    100.00% |           0      0.00%    100.00% |           0      0.00%    100.00%
system.ruby.latency_hist_seqr::total       1469140239                      
system.ruby.miss_latency_hist_seqr::bucket_size            1                      
system.ruby.miss_latency_hist_seqr::max_bucket            9                      
system.ruby.miss_latency_hist_seqr::samples      9673328                      
system.ruby.miss_latency_hist_seqr       |     9673328    100.00%    100.00% |           0      0.00%    100.00% |           0      0.00%    100.00% |           0      0.00%    100.00% |           0      0.00%    100.00% |           0      0.00%    100.00% |           0      0.00%    100.00% |           0      0.00%    100.00% |           0      0.00%    100.00% |           0      0.00%    100.00%
system.ruby.miss_latency_hist_seqr::total      9673328                      
system.ruby.network.average_flit_latency    17.034172                      
system.ruby.network.average_flit_network_latency    12.844722                      
system.ruby.network.average_flit_queueing_latency     4.189451                      
system.ruby.network.average_flit_vnet_latency |   15.029195                       |    5.003472                       |   11.022550                      
system.ruby.network.average_flit_vqueue_latency |    5.977530                       |    6.000012                       |    1.000258                      
system.ruby.network.average_hops             1.001291                      
system.ruby.network.average_packet_latency    16.878212                      
system.ruby.network.average_packet_network_latency    13.380925                      
system.ruby.network.average_packet_queueing_latency     3.497287                      
system.ruby.network.average_packet_vnet_latency |   24.997745                       |    5.003472                       |    9.642716                      
system.ruby.network.average_packet_vqueue_latency |    5.965296                       |    6.000012                       |    1.000308                      
system.ruby.network.avg_link_utilization     0.225579                      
system.ruby.network.avg_vc_load          |    0.095356     42.27%     42.27% |    0.011111      4.93%     47.20% |    0.010646      4.72%     51.92% |    0.010643      4.72%     56.63% |    0.012541      5.56%     62.19% |    0.001399      0.62%     62.81% |    0.001394      0.62%     63.43% |    0.001394      0.62%     64.05% |    0.059961     26.58%     90.63% |    0.007614      3.38%     94.01% |    0.006771      3.00%     97.01% |    0.006749      2.99%    100.00%
system.ruby.network.avg_vc_load::total       0.225579                      
system.ruby.network.ext_in_link_utilization     85738260                      
system.ruby.network.ext_out_link_utilization     85738259                      
system.ruby.network.flit_network_latency |   729633626                       |    31824125                       |   339826318                      
system.ruby.network.flit_queueing_latency |   290195636                       |    38162524                       |    30838057                      
system.ruby.network.flits_injected       |    48547755     56.62%     56.62% |     6360408      7.42%     64.04% |    30830099     35.96%    100.00%
system.ruby.network.flits_injected::total     85738262                      
system.ruby.network.flits_received       |    48547752     56.62%     56.62% |     6360408      7.42%     64.04% |    30830099     35.96%    100.00%
system.ruby.network.flits_received::total     85738259                      
system.ruby.network.int_link_utilization     85848956                      
system.ruby.network.packet_network_latency |   243336602                       |    31824125                       |   154249236                      
system.ruby.network.packet_queueing_latency |    58068232                       |    38162524                       |    16001385                      
system.ruby.network.packets_injected     |     9734343     30.33%     30.33% |     6360408     19.82%     50.15% |    15996451     49.85%    100.00%
system.ruby.network.packets_injected::total     32091202                      
system.ruby.network.packets_received     |     9734342     30.33%     30.33% |     6360408     19.82%     50.15% |    15996451     49.85%    100.00%
system.ruby.network.packets_received::total     32091201                      
system.ruby.network.routers0.buffer_reads     43583089                      
system.ruby.network.routers0.buffer_writes     43583089                      
system.ruby.network.routers0.crossbar_activity     43583089                      
system.ruby.network.routers0.sw_input_arbiter_activity     43648707                      
system.ruby.network.routers0.sw_output_arbiter_activity     43583089                      
system.ruby.network.routers1.buffer_reads     43621159                      
system.ruby.network.routers1.buffer_writes     43621159                      
system.ruby.network.routers1.crossbar_activity     43621159                      
system.ruby.network.routers1.sw_input_arbiter_activity     43679529                      
system.ruby.network.routers1.sw_output_arbiter_activity     43621159                      
system.ruby.network.routers2.buffer_reads     42511116                      
system.ruby.network.routers2.buffer_writes     42511116                      
system.ruby.network.routers2.crossbar_activity     42511116                      
system.ruby.network.routers2.sw_input_arbiter_activity     42571494                      
system.ruby.network.routers2.sw_output_arbiter_activity     42511116                      
system.ruby.network.routers3.buffer_reads     41871851                      
system.ruby.network.routers3.buffer_writes     41871851                      
system.ruby.network.routers3.crossbar_activity     41871851                      
system.ruby.network.routers3.sw_input_arbiter_activity     41930059                      
system.ruby.network.routers3.sw_output_arbiter_activity     41871851                      
system.ruby.outstanding_req_hist_seqr::bucket_size            1                      
system.ruby.outstanding_req_hist_seqr::max_bucket            9                      
system.ruby.outstanding_req_hist_seqr::samples   1469140242                      
system.ruby.outstanding_req_hist_seqr::mean     1.000000                      
system.ruby.outstanding_req_hist_seqr::gmean     1.000000                      
system.ruby.outstanding_req_hist_seqr::stdev     0.000130                      
system.ruby.outstanding_req_hist_seqr    |           0      0.00%      0.00% |  1469140217    100.00%    100.00% |          25      0.00%    100.00% |           0      0.00%    100.00% |           0      0.00%    100.00% |           0      0.00%    100.00% |           0      0.00%    100.00% |           0      0.00%    100.00% |           0      0.00%    100.00% |           0      0.00%    100.00%
system.ruby.outstanding_req_hist_seqr::total   1469140242                      
system.switch_cpus0.Branches                 12372180                       # Number of branches fetched
system.switch_cpus0.committedInsts          191779683                       # Number of instructions committed
system.switch_cpus0.committedOps            310546609                       # Number of ops (including micro ops) committed
system.switch_cpus0.dtb.rdAccesses           60552067                       # TLB accesses on read requests
system.switch_cpus0.dtb.rdMisses                47663                       # TLB misses on read requests
system.switch_cpus0.dtb.wrAccesses           16379441                       # TLB accesses on write requests
system.switch_cpus0.dtb.wrMisses                 5598                       # TLB misses on write requests
system.switch_cpus0.idle_fraction            0.006632                       # Percentage of idle cycles
system.switch_cpus0.itb.rdAccesses                  0                       # TLB accesses on read requests
system.switch_cpus0.itb.rdMisses                    0                       # TLB misses on read requests
system.switch_cpus0.itb.wrAccesses          285937880                       # TLB accesses on write requests
system.switch_cpus0.itb.wrMisses                 6700                       # TLB misses on write requests
system.switch_cpus0.kern.inst.arm                   0                       # number of arm instructions executed
system.switch_cpus0.kern.inst.quiesce               0                       # number of quiesce instructions executed
system.switch_cpus0.not_idle_fraction        0.993368                       # Percentage of non-idle cycles
system.switch_cpus0.numCycles              1140733747                       # number of cpu cycles simulated
system.switch_cpus0.numWorkItemsCompleted            0                       # number of work items this cpu completed
system.switch_cpus0.numWorkItemsStarted             0                       # number of work items this cpu started
system.switch_cpus0.num_busy_cycles      1133168952.000026                       # Number of busy cycles
system.switch_cpus0.num_cc_register_reads     77737229                       # number of times the CC registers were read
system.switch_cpus0.num_cc_register_writes     46817180                       # number of times the CC registers were written
system.switch_cpus0.num_conditional_control_insts     11847854                       # number of instructions that are conditional controls
system.switch_cpus0.num_fp_alu_accesses     214182418                       # Number of float alu accesses
system.switch_cpus0.num_fp_insts            214182418                       # number of float instructions
system.switch_cpus0.num_fp_register_reads    382609552                       # number of times the floating registers were read
system.switch_cpus0.num_fp_register_writes    201709954                       # number of times the floating registers were written
system.switch_cpus0.num_func_calls             338548                       # number of times a function call or return occured
system.switch_cpus0.num_idle_cycles      7564794.999974                       # Number of idle cycles
system.switch_cpus0.num_int_alu_accesses    153329379                       # Number of integer alu accesses
system.switch_cpus0.num_int_insts           153329379                       # number of integer instructions
system.switch_cpus0.num_int_register_reads    351418461                       # number of times the integer registers were read
system.switch_cpus0.num_int_register_writes     79952313                       # number of times the integer registers were written
system.switch_cpus0.num_load_insts           60504394                       # Number of load instructions
system.switch_cpus0.num_mem_refs             76878763                       # number of memory refs
system.switch_cpus0.num_store_insts          16374369                       # Number of store instructions
system.switch_cpus0.num_vec_alu_accesses            0                       # Number of vector alu accesses
system.switch_cpus0.num_vec_insts                   0                       # number of vector instructions
system.switch_cpus0.num_vec_register_reads            0                       # number of times the vector registers were read
system.switch_cpus0.num_vec_register_writes            0                       # number of times the vector registers were written
system.switch_cpus0.op_class::No_OpClass       322729      0.10%      0.10% # Class of executed instruction
system.switch_cpus0.op_class::IntAlu        111191620     35.81%     35.91% # Class of executed instruction
system.switch_cpus0.op_class::IntMult           81725      0.03%     35.94% # Class of executed instruction
system.switch_cpus0.op_class::IntDiv            40686      0.01%     35.95% # Class of executed instruction
system.switch_cpus0.op_class::FloatAdd       21805694      7.02%     42.97% # Class of executed instruction
system.switch_cpus0.op_class::FloatCmp              0      0.00%     42.97% # Class of executed instruction
system.switch_cpus0.op_class::FloatCvt            160      0.00%     42.97% # Class of executed instruction
system.switch_cpus0.op_class::FloatMult             0      0.00%     42.97% # Class of executed instruction
system.switch_cpus0.op_class::FloatMultAcc            0      0.00%     42.97% # Class of executed instruction
system.switch_cpus0.op_class::FloatDiv              0      0.00%     42.97% # Class of executed instruction
system.switch_cpus0.op_class::FloatMisc             0      0.00%     42.97% # Class of executed instruction
system.switch_cpus0.op_class::FloatSqrt             0      0.00%     42.97% # Class of executed instruction
system.switch_cpus0.op_class::SimdAdd             398      0.00%     42.97% # Class of executed instruction
system.switch_cpus0.op_class::SimdAddAcc            0      0.00%     42.97% # Class of executed instruction
system.switch_cpus0.op_class::SimdAlu           18505      0.01%     42.98% # Class of executed instruction
system.switch_cpus0.op_class::SimdCmp               0      0.00%     42.98% # Class of executed instruction
system.switch_cpus0.op_class::SimdCvt             112      0.00%     42.98% # Class of executed instruction
system.switch_cpus0.op_class::SimdMisc           1660      0.00%     42.98% # Class of executed instruction
system.switch_cpus0.op_class::SimdMult              0      0.00%     42.98% # Class of executed instruction
system.switch_cpus0.op_class::SimdMultAcc            0      0.00%     42.98% # Class of executed instruction
system.switch_cpus0.op_class::SimdShift           196      0.00%     42.98% # Class of executed instruction
system.switch_cpus0.op_class::SimdShiftAcc            0      0.00%     42.98% # Class of executed instruction
system.switch_cpus0.op_class::SimdDiv               0      0.00%     42.98% # Class of executed instruction
system.switch_cpus0.op_class::SimdSqrt              0      0.00%     42.98% # Class of executed instruction
system.switch_cpus0.op_class::SimdFloatAdd     50328418     16.21%     59.18% # Class of executed instruction
system.switch_cpus0.op_class::SimdFloatAlu            0      0.00%     59.18% # Class of executed instruction
system.switch_cpus0.op_class::SimdFloatCmp            0      0.00%     59.18% # Class of executed instruction
system.switch_cpus0.op_class::SimdFloatCvt         4811      0.00%     59.18% # Class of executed instruction
system.switch_cpus0.op_class::SimdFloatDiv         8469      0.00%     59.19% # Class of executed instruction
system.switch_cpus0.op_class::SimdFloatMisc            0      0.00%     59.19% # Class of executed instruction
system.switch_cpus0.op_class::SimdFloatMult     49859974     16.06%     75.24% # Class of executed instruction
system.switch_cpus0.op_class::SimdFloatMultAcc            0      0.00%     75.24% # Class of executed instruction
[...]
system.mem_ctrls1.totGap                 570366565000                       # Total gap between requests
system.mem_ctrls1.avgGap                    170854.73                       # Average gap between requests
system.mem_ctrls1.masterReadBytes::.ruby.dir_cntrl1    152109184                       # Per-master bytes read from memory
system.mem_ctrls1.masterWriteBytes::.ruby.dir_cntrl1     59218624                       # Per-master bytes write to memory
system.mem_ctrls1.masterReadRate::.ruby.dir_cntrl1 266686568.008990973234                       # Per-master bytes read from memory rate (Bytes/sec)
system.mem_ctrls1.masterWriteRate::.ruby.dir_cntrl1 103825496.800869464874                       # Per-master bytes write to memory rate (Bytes/sec)
system.mem_ctrls1.masterReadAccesses::.ruby.dir_cntrl1      2409229                       # Per-master read serviced memory accesses
system.mem_ctrls1.masterWriteAccesses::.ruby.dir_cntrl1       929084                       # Per-master write serviced memory accesses
system.mem_ctrls1.masterReadTotalLat::.ruby.dir_cntrl1  72450292961                       # Per-master read total memory access latency
system.mem_ctrls1.masterWriteTotalLat::.ruby.dir_cntrl1 13752133940634                       # Per-master write total memory access latency
system.mem_ctrls1.masterReadAvgLat::.ruby.dir_cntrl1     30071.98                       # Per-master read average memory access latency
system.mem_ctrls1.masterWriteAvgLat::.ruby.dir_cntrl1  14801819.79                       # Per-master write average memory access latency
system.mem_ctrls1.pageHitRate                   71.08                       # Row buffer hit rate, read and write combined
system.mem_ctrls1.rank1.actEnergy          3471932100                       # Energy for activate commands per rank (pJ)
system.mem_ctrls1.rank1.preEnergy          1845371880                       # Energy for precharge commands per rank (pJ)
system.mem_ctrls1.rank1.readEnergy         8878861320                       # Energy for read commands per rank (pJ)
system.mem_ctrls1.rank1.writeEnergy        2600045460                       # Energy for write commands per rank (pJ)
system.mem_ctrls1.rank1.refreshEnergy    45024223920.000008                       # Energy for refresh commands per rank (pJ)
system.mem_ctrls1.rank1.actBackEnergy    221286675660                       # Energy for active background per rank (pJ)
system.mem_ctrls1.rank1.preBackEnergy     32674105440                       # Energy for precharge background per rank (pJ)
system.mem_ctrls1.rank1.actPowerDownEnergy            0                       # Energy for active power-down per rank (pJ)
system.mem_ctrls1.rank1.prePowerDownEnergy            0                       # Energy for precharge power-down per rank (pJ)
system.mem_ctrls1.rank1.selfRefreshEnergy            0                       # Energy for self refresh per rank (pJ)
system.mem_ctrls1.rank1.totalEnergy      315781215780                       # Total energy per rank (pJ)
system.mem_ctrls1.rank1.averagePower       553.645786                       # Core power per rank (mW)
system.mem_ctrls1.rank1.totalIdleTime               0                       # Total Idle time Per DRAM Rank
system.mem_ctrls1.rank1.memoryStateTime::IDLE  82885004086                       # Time in different power states
system.mem_ctrls1.rank1.memoryStateTime::REF  19045780000                       # Time in different power states
system.mem_ctrls1.rank1.memoryStateTime::SREF            0                       # Time in different power states
system.mem_ctrls1.rank1.memoryStateTime::PRE_PDN            0                       # Time in different power states
system.mem_ctrls1.rank1.memoryStateTime::ACT 468436089415                       # Time in different power states
system.mem_ctrls1.rank1.memoryStateTime::ACT_PDN            0                       # Time in different power states
system.mem_ctrls1.rank0.actEnergy          3345532680                       # Energy for activate commands per rank (pJ)
system.mem_ctrls1.rank0.preEnergy          1778188995                       # Energy for precharge commands per rank (pJ)
system.mem_ctrls1.rank0.readEnergy         8090819520                       # Energy for read commands per rank (pJ)
system.mem_ctrls1.rank0.writeEnergy        2229973560                       # Energy for write commands per rank (pJ)
system.mem_ctrls1.rank0.refreshEnergy    45024223920.000008                       # Energy for refresh commands per rank (pJ)
system.mem_ctrls1.rank0.actBackEnergy    219933393630                       # Energy for active background per rank (pJ)
system.mem_ctrls1.rank0.preBackEnergy     33813777120                       # Energy for precharge background per rank (pJ)
system.mem_ctrls1.rank0.actPowerDownEnergy            0                       # Energy for active power-down per rank (pJ)
system.mem_ctrls1.rank0.prePowerDownEnergy            0                       # Energy for precharge power-down per rank (pJ)
system.mem_ctrls1.rank0.selfRefreshEnergy            0                       # Energy for self refresh per rank (pJ)
system.mem_ctrls1.rank0.totalEnergy      314215909425                       # Total energy per rank (pJ)
system.mem_ctrls1.rank0.averagePower       550.901401                       # Core power per rank (mW)
system.mem_ctrls1.rank0.totalIdleTime               0                       # Total Idle time Per DRAM Rank
system.mem_ctrls1.rank0.memoryStateTime::IDLE  85900229898                       # Time in different power states
system.mem_ctrls1.rank0.memoryStateTime::REF  19045780000                       # Time in different power states
system.mem_ctrls1.rank0.memoryStateTime::SREF            0                       # Time in different power states
system.mem_ctrls1.rank0.memoryStateTime::PRE_PDN            0                       # Time in different power states
system.mem_ctrls1.rank0.memoryStateTime::ACT 465420863603                       # Time in different power states
system.mem_ctrls1.rank0.memoryStateTime::ACT_PDN            0                       # Time in different power states
system.mem_ctrls1.power_state.pwrStateResidencyTicks::UNDEFINED 102330294949001                       # Cumulative time (in ticks) in various power states
system.cpu_voltage_domain.voltage                   1                       # Voltage in Volts
system.iobus.trans_dist::ReadReq                 1426                       # Transaction distribution
system.iobus.trans_dist::ReadResp                1426                       # Transaction distribution
system.iobus.trans_dist::WriteReq                3404                       # Transaction distribution
system.iobus.trans_dist::WriteResp               3404                       # Transaction distribution
system.iobus.pkt_count_system.pc.south_bridge.io_apic.int_master::system.ruby.l1_cntrl1.sequencer.pio-slave-port          918                       # Packet count per connected master and slave (bytes)
system.iobus.pkt_count_system.pc.south_bridge.io_apic.int_master::total          918                       # Packet count per connected master and slave (bytes)
system.iobus.pkt_count_system.ruby.l1_cntrl0.sequencer.mem-master-port::system.ruby.l1_cntrl0.sequencer.pio-slave-port         1202                       # Packet count per connected master and slave (bytes)
system.iobus.pkt_count_system.ruby.l1_cntrl0.sequencer.mem-master-port::system.ruby.l1_cntrl1.sequencer.pio-slave-port            8                       # Packet count per connected master and slave (bytes)
system.iobus.pkt_count_system.ruby.l1_cntrl0.sequencer.mem-master-port::system.ruby.l1_cntrl2.sequencer.pio-slave-port            4                       # Packet count per connected master and slave (bytes)
system.iobus.pkt_count_system.ruby.l1_cntrl0.sequencer.mem-master-port::system.ruby.l1_cntrl3.sequencer.pio-slave-port            8                       # Packet count per connected master and slave (bytes)
system.iobus.pkt_count_system.ruby.l1_cntrl0.sequencer.mem-master-port::total         1222                       # Packet count per connected master and slave (bytes)
system.iobus.pkt_count_system.ruby.l1_cntrl1.sequencer.mem-master-port::system.pc.south_bridge.ide.pio          150                       # Packet count per connected master and slave (bytes)
system.iobus.pkt_count_system.ruby.l1_cntrl1.sequencer.mem-master-port::system.pc.com_1.pio         3638                       # Packet count per connected master and slave (bytes)
system.iobus.pkt_count_system.ruby.l1_cntrl1.sequencer.mem-master-port::system.ruby.l1_cntrl0.sequencer.pio-slave-port           10                       # Packet count per connected master and slave (bytes)
system.iobus.pkt_count_system.ruby.l1_cntrl1.sequencer.mem-master-port::system.ruby.l1_cntrl1.sequencer.pio-slave-port         1244                       # Packet count per connected master and slave (bytes)
system.iobus.pkt_count_system.ruby.l1_cntrl1.sequencer.mem-master-port::system.ruby.l1_cntrl2.sequencer.pio-slave-port            8                       # Packet count per connected master and slave (bytes)
system.iobus.pkt_count_system.ruby.l1_cntrl1.sequencer.mem-master-port::system.ruby.l1_cntrl3.sequencer.pio-slave-port            8                       # Packet count per connected master and slave (bytes)
system.iobus.pkt_count_system.ruby.l1_cntrl1.sequencer.mem-master-port::total         5058                       # Packet count per connected master and slave (bytes)
system.iobus.pkt_count_system.ruby.l1_cntrl2.sequencer.mem-master-port::system.ruby.l1_cntrl0.sequencer.pio-slave-port            2                       # Packet count per connected master and slave (bytes)
system.iobus.pkt_count_system.ruby.l1_cntrl2.sequencer.mem-master-port::system.ruby.l1_cntrl1.sequencer.pio-slave-port            4                       # Packet count per connected master and slave (bytes)
system.iobus.pkt_count_system.ruby.l1_cntrl2.sequencer.mem-master-port::system.ruby.l1_cntrl2.sequencer.pio-slave-port         1196                       # Packet count per connected master and slave (bytes)
system.iobus.pkt_count_system.ruby.l1_cntrl2.sequencer.mem-master-port::system.ruby.l1_cntrl3.sequencer.pio-slave-port            6                       # Packet count per connected master and slave (bytes)
system.iobus.pkt_count_system.ruby.l1_cntrl2.sequencer.mem-master-port::total         1208                       # Packet count per connected master and slave (bytes)
system.iobus.pkt_count_system.ruby.l1_cntrl3.sequencer.mem-master-port::system.pc.south_bridge.ide.pio           34                       # Packet count per connected master and slave (bytes)
system.iobus.pkt_count_system.ruby.l1_cntrl3.sequencer.mem-master-port::system.pc.com_1.pio            2                       # Packet count per connected master and slave (bytes)
system.iobus.pkt_count_system.ruby.l1_cntrl3.sequencer.mem-master-port::system.ruby.l1_cntrl0.sequencer.pio-slave-port            6                       # Packet count per connected master and slave (bytes)
system.iobus.pkt_count_system.ruby.l1_cntrl3.sequencer.mem-master-port::system.ruby.l1_cntrl1.sequencer.pio-slave-port            4                       # Packet count per connected master and slave (bytes)
system.iobus.pkt_count_system.ruby.l1_cntrl3.sequencer.mem-master-port::system.ruby.l1_cntrl2.sequencer.pio-slave-port            4                       # Packet count per connected master and slave (bytes)
system.iobus.pkt_count_system.ruby.l1_cntrl3.sequencer.mem-master-port::system.ruby.l1_cntrl3.sequencer.pio-slave-port         1204                       # Packet count per connected master and slave (bytes)
system.iobus.pkt_count_system.ruby.l1_cntrl3.sequencer.mem-master-port::total         1254                       # Packet count per connected master and slave (bytes)
system.iobus.pkt_count::total                    9660                       # Packet count per connected master and slave (bytes)
system.iobus.pkt_size_system.pc.south_bridge.io_apic.int_master::system.ruby.l1_cntrl1.sequencer.pio-slave-port         1836                       # Cumulative packet size per connected master and slave (bytes)
system.iobus.pkt_size_system.pc.south_bridge.io_apic.int_master::total         1836                       # Cumulative packet size per connected master and slave (bytes)
system.iobus.pkt_size_system.ruby.l1_cntrl0.sequencer.mem-master-port::system.ruby.l1_cntrl0.sequencer.pio-slave-port         2404                       # Cumulative packet size per connected master and slave (bytes)
system.iobus.pkt_size_system.ruby.l1_cntrl0.sequencer.mem-master-port::system.ruby.l1_cntrl1.sequencer.pio-slave-port           16                       # Cumulative packet size per connected master and slave (bytes)
system.iobus.pkt_size_system.ruby.l1_cntrl0.sequencer.mem-master-port::system.ruby.l1_cntrl2.sequencer.pio-slave-port            8                       # Cumulative packet size per connected master and slave (bytes)
system.iobus.pkt_size_system.ruby.l1_cntrl0.sequencer.mem-master-port::system.ruby.l1_cntrl3.sequencer.pio-slave-port           16                       # Cumulative packet size per connected master and slave (bytes)
system.iobus.pkt_size_system.ruby.l1_cntrl0.sequencer.mem-master-port::total         2444                       # Cumulative packet size per connected master and slave (bytes)
system.iobus.pkt_size_system.ruby.l1_cntrl1.sequencer.mem-master-port::system.pc.south_bridge.ide.pio           84                       # Cumulative packet size per connected master and slave (bytes)
system.iobus.pkt_size_system.ruby.l1_cntrl1.sequencer.mem-master-port::system.pc.com_1.pio         1819                       # Cumulative packet size per connected master and slave (bytes)
system.iobus.pkt_size_system.ruby.l1_cntrl1.sequencer.mem-master-port::system.ruby.l1_cntrl0.sequencer.pio-slave-port           20                       # Cumulative packet size per connected master and slave (bytes)
system.iobus.pkt_size_system.ruby.l1_cntrl1.sequencer.mem-master-port::system.ruby.l1_cntrl1.sequencer.pio-slave-port         2488                       # Cumulative packet size per connected master and slave (bytes)
system.iobus.pkt_size_system.ruby.l1_cntrl1.sequencer.mem-master-port::system.ruby.l1_cntrl2.sequencer.pio-slave-port           16                       # Cumulative packet size per connected master and slave (bytes)
system.iobus.pkt_size_system.ruby.l1_cntrl1.sequencer.mem-master-port::system.ruby.l1_cntrl3.sequencer.pio-slave-port           16                       # Cumulative packet size per connected master and slave (bytes)
system.iobus.pkt_size_system.ruby.l1_cntrl1.sequencer.mem-master-port::total         4443                       # Cumulative packet size per connected master and slave (bytes)
system.iobus.pkt_size_system.ruby.l1_cntrl2.sequencer.mem-master-port::system.ruby.l1_cntrl0.sequencer.pio-slave-port            4                       # Cumulative packet size per connected master and slave (bytes)
system.iobus.pkt_size_system.ruby.l1_cntrl2.sequencer.mem-master-port::system.ruby.l1_cntrl1.sequencer.pio-slave-port            8                       # Cumulative packet size per connected master and slave (bytes)
system.iobus.pkt_size_system.ruby.l1_cntrl2.sequencer.mem-master-port::system.ruby.l1_cntrl2.sequencer.pio-slave-port         2392                       # Cumulative packet size per connected master and slave (bytes)
system.iobus.pkt_size_system.ruby.l1_cntrl2.sequencer.mem-master-port::system.ruby.l1_cntrl3.sequencer.pio-slave-port           12                       # Cumulative packet size per connected master and slave (bytes)
system.iobus.pkt_size_system.ruby.l1_cntrl2.sequencer.mem-master-port::total         2416                       # Cumulative packet size per connected master and slave (bytes)
system.iobus.pkt_size_system.ruby.l1_cntrl3.sequencer.mem-master-port::system.pc.south_bridge.ide.pio           20                       # Cumulative packet size per connected master and slave (bytes)
system.iobus.pkt_size_system.ruby.l1_cntrl3.sequencer.mem-master-port::system.pc.com_1.pio            1                       # Cumulative packet size per connected master and slave (bytes)
system.iobus.pkt_size_system.ruby.l1_cntrl3.sequencer.mem-master-port::system.ruby.l1_cntrl0.sequencer.pio-slave-port           12                       # Cumulative packet size per connected master and slave (bytes)
system.iobus.pkt_size_system.ruby.l1_cntrl3.sequencer.mem-master-port::system.ruby.l1_cntrl1.sequencer.pio-slave-port            8                       # Cumulative packet size per connected master and slave (bytes)
system.iobus.pkt_size_system.ruby.l1_cntrl3.sequencer.mem-master-port::system.ruby.l1_cntrl2.sequencer.pio-slave-port            8                       # Cumulative packet size per connected master and slave (bytes)
system.iobus.pkt_size_system.ruby.l1_cntrl3.sequencer.mem-master-port::system.ruby.l1_cntrl3.sequencer.pio-slave-port         2408                       # Cumulative packet size per connected master and slave (bytes)
system.iobus.pkt_size_system.ruby.l1_cntrl3.sequencer.mem-master-port::total         2457                       # Cumulative packet size per connected master and slave (bytes)
system.iobus.pkt_size::total                    13596                       # Cumulative packet size per connected master and slave (bytes)
system.iobus.reqLayer2.occupancy               165000                       # Layer occupancy (ticks)
system.iobus.reqLayer2.utilization                0.0                       # Layer utilization (%)
system.iobus.power_state.pwrStateResidencyTicks::UNDEFINED 102330294949001                       # Cumulative time (in ticks) in various power states
system.iobus.reqLayer19.occupancy             1642418                       # Layer occupancy (ticks)
system.iobus.reqLayer19.utilization               0.0                       # Layer utilization (%)
system.iobus.reqLayer17.occupancy             1658418                       # Layer occupancy (ticks)
system.iobus.reqLayer17.utilization               0.0                       # Layer utilization (%)
system.iobus.reqLayer12.occupancy             2308000                       # Layer occupancy (ticks)
system.iobus.reqLayer12.utilization               0.0                       # Layer utilization (%)
system.iobus.reqLayer18.occupancy             2622913                       # Layer occupancy (ticks)
system.iobus.reqLayer18.utilization               0.0                       # Layer utilization (%)
system.iobus.respLayer9.occupancy              938500                       # Layer occupancy (ticks)
system.iobus.respLayer9.utilization               0.0                       # Layer utilization (%)
system.iobus.respLayer5.occupancy             4244000                       # Layer occupancy (ticks)
system.iobus.respLayer5.utilization               0.0                       # Layer utilization (%)
system.iobus.respLayer7.occupancy              909000                       # Layer occupancy (ticks)
system.iobus.respLayer7.utilization               0.0                       # Layer utilization (%)
system.iobus.respLayer0.occupancy              677496                       # Layer occupancy (ticks)
system.iobus.respLayer0.utilization               0.0                       # Layer utilization (%)
system.iobus.respLayer3.occupancy              918000                       # Layer occupancy (ticks)
system.iobus.respLayer3.utilization               0.0                       # Layer utilization (%)
system.iobus.reqLayer20.occupancy             1663416                       # Layer occupancy (ticks)
system.iobus.reqLayer20.utilization               0.0                       # Layer utilization (%)

---------- End Simulation Statistics   ----------
