
---------- Begin Simulation Statistics ----------
final_tick                               99355541703001                       # Number of ticks from beginning of simulation (restored from checkpoints and never reset)
host_inst_rate                                8677125                       # Simulator instruction rate (inst/s)
host_mem_usage                                1506296                       # Number of bytes of host memory used
host_op_rate                                  8875645                       # Simulator op (including micro ops) rate (op/s)
host_seconds                                   587.22                       # Real time elapsed on the host
host_tick_rate                              114789122                       # Simulator tick rate (ticks/s)
sim_freq                                 1000000000000                       # Frequency of simulated ticks
sim_insts                                  5095407241                       # Number of instructions simulated
sim_ops                                    5211983798                       # Number of ops (including micro ops) simulated
sim_seconds                                  0.067407                       # Number of seconds simulated
sim_ticks                                 67406827501                       # Number of ticks simulated
system.cpu0.committedInsts                          0                       # Number of instructions committed
system.cpu0.dtb.rdAccesses                          0                       # TLB accesses on read requests
system.cpu0.dtb.rdMisses                            0                       # TLB misses on read requests
system.cpu0.dtb.wrAccesses                          0                       # TLB accesses on write requests
system.cpu0.dtb.wrMisses                            0                       # TLB misses on write requests
system.cpu0.itb.rdAccesses                          0                       # TLB accesses on read requests
system.cpu0.itb.rdMisses                            0                       # TLB misses on read requests
system.cpu0.itb.wrAccesses                          0                       # TLB accesses on write requests
system.cpu0.itb.wrMisses                            0                       # TLB misses on write requests
system.cpu0.kern.inst.arm                           0                       # number of arm instructions executed
system.cpu0.kern.inst.quiesce                       0                       # number of quiesce instructions executed
system.cpu0.numCoalescedMMIO                        0                       # number of coalesced memory mapped IO requests
system.cpu0.numCycles                               0                       # number of cpu cycles simulated
system.cpu0.numExitSignal                           0                       # exits due to signal delivery
system.cpu0.numHalt                                 0                       # number of VM exits due to wait for interrupt instructions
system.cpu0.numHypercalls                           0                       # number of hypercalls
system.cpu0.numIO                                   0                       # number of VM exits due to legacy IO
system.cpu0.numInterrupts                           0                       # number of interrupts delivered
system.cpu0.numMMIO                                 0                       # number of VM exits due to memory mapped IO
system.cpu0.numVMExits                              0                       # total number of KVM exits
system.cpu0.numVMHalfEntries                        0                       # number of KVM entries to finalize pending operations
system.cpu0.numWorkItemsCompleted                   0                       # number of work items this cpu completed
system.cpu0.numWorkItemsStarted                     0                       # number of work items this cpu started
system.cpu1.committedInsts                          0                       # Number of instructions committed
system.cpu1.dtb.rdAccesses                          0                       # TLB accesses on read requests
system.cpu1.dtb.rdMisses                            0                       # TLB misses on read requests
system.cpu1.dtb.wrAccesses                          0                       # TLB accesses on write requests
system.cpu1.dtb.wrMisses                            0                       # TLB misses on write requests
system.cpu1.itb.rdAccesses                          0                       # TLB accesses on read requests
system.cpu1.itb.rdMisses                            0                       # TLB misses on read requests
system.cpu1.itb.wrAccesses                          0                       # TLB accesses on write requests
system.cpu1.itb.wrMisses                            0                       # TLB misses on write requests
system.cpu1.kern.inst.arm                           0                       # number of arm instructions executed
system.cpu1.kern.inst.quiesce                       0                       # number of quiesce instructions executed
system.cpu1.numCoalescedMMIO                        0                       # number of coalesced memory mapped IO requests
system.cpu1.numCycles                               0                       # number of cpu cycles simulated
system.cpu1.numExitSignal                           0                       # exits due to signal delivery
system.cpu1.numHalt                                 0                       # number of VM exits due to wait for interrupt instructions
system.cpu1.numHypercalls                           0                       # number of hypercalls
system.cpu1.numIO                                   0                       # number of VM exits due to legacy IO
system.cpu1.numInterrupts                           0                       # number of interrupts delivered
system.cpu1.numMMIO                                 0                       # number of VM exits due to memory mapped IO
system.cpu1.numVMExits                              0                       # total number of KVM exits
system.cpu1.numVMHalfEntries                        0                       # number of KVM entries to finalize pending operations
system.cpu1.numWorkItemsCompleted                   0                       # number of work items this cpu completed
system.cpu1.numWorkItemsStarted                     0                       # number of work items this cpu started
system.cpu2.committedInsts                          0                       # Number of instructions committed
system.cpu2.dtb.rdAccesses                          0                       # TLB accesses on read requests
system.cpu2.dtb.rdMisses                            0                       # TLB misses on read requests
system.cpu2.dtb.wrAccesses                          0                       # TLB accesses on write requests
system.cpu2.dtb.wrMisses                            0                       # TLB misses on write requests
system.cpu2.itb.rdAccesses                          0                       # TLB accesses on read requests
system.cpu2.itb.rdMisses                            0                       # TLB misses on read requests
system.cpu2.itb.wrAccesses                          0                       # TLB accesses on write requests
system.cpu2.itb.wrMisses                            0                       # TLB misses on write requests
system.cpu2.kern.inst.arm                           0                       # number of arm instructions executed
system.cpu2.kern.inst.quiesce                       0                       # number of quiesce instructions executed
system.cpu2.numCoalescedMMIO                        0                       # number of coalesced memory mapped IO requests
system.cpu2.numCycles                               0                       # number of cpu cycles simulated
system.cpu2.numExitSignal                           0                       # exits due to signal delivery
system.cpu2.numHalt                                 0                       # number of VM exits due to wait for interrupt instructions
system.cpu2.numHypercalls                           0                       # number of hypercalls
system.cpu2.numIO                                   0                       # number of VM exits due to legacy IO
system.cpu2.numInterrupts                           0                       # number of interrupts delivered
system.cpu2.numMMIO                                 0                       # number of VM exits due to memory mapped IO
system.cpu2.numVMExits                              0                       # total number of KVM exits
system.cpu2.numVMHalfEntries                        0                       # number of KVM entries to finalize pending operations
system.cpu2.numWorkItemsCompleted                   0                       # number of work items this cpu completed
system.cpu2.numWorkItemsStarted                     0                       # number of work items this cpu started
system.cpu3.committedInsts                          0                       # Number of instructions committed
system.cpu3.dtb.rdAccesses                          0                       # TLB accesses on read requests
system.cpu3.dtb.rdMisses                            0                       # TLB misses on read requests
system.cpu3.dtb.wrAccesses                          0                       # TLB accesses on write requests
system.cpu3.dtb.wrMisses                            0                       # TLB misses on write requests
system.cpu3.itb.rdAccesses                          0                       # TLB accesses on read requests
system.cpu3.itb.rdMisses                            0                       # TLB misses on read requests
system.cpu3.itb.wrAccesses                          0                       # TLB accesses on write requests
system.cpu3.itb.wrMisses                            0                       # TLB misses on write requests
system.cpu3.kern.inst.arm                           0                       # number of arm instructions executed
system.cpu3.kern.inst.quiesce                       0                       # number of quiesce instructions executed
system.cpu3.numCoalescedMMIO                        0                       # number of coalesced memory mapped IO requests
system.cpu3.numCycles                               0                       # number of cpu cycles simulated
system.cpu3.numExitSignal                           0                       # exits due to signal delivery
system.cpu3.numHalt                                 0                       # number of VM exits due to wait for interrupt instructions
system.cpu3.numHypercalls                           0                       # number of hypercalls
system.cpu3.numIO                                   0                       # number of VM exits due to legacy IO
system.cpu3.numInterrupts                           0                       # number of interrupts delivered
system.cpu3.numMMIO                                 0                       # number of VM exits due to memory mapped IO
system.cpu3.numVMExits                              0                       # total number of KVM exits
system.cpu3.numVMHalfEntries                        0                       # number of KVM entries to finalize pending operations
system.cpu3.numWorkItemsCompleted                   0                       # number of work items this cpu completed
system.cpu3.numWorkItemsStarted                     0                       # number of work items this cpu started
system.pc.south_bridge.ide.disks.dma_read_bytes            0                       # Number of bytes transfered via DMA reads (not PRD).
system.pc.south_bridge.ide.disks.dma_read_full_pages            0                       # Number of full page size DMA reads (not PRD).
system.pc.south_bridge.ide.disks.dma_read_txs            0                       # Number of DMA read transactions (not PRD).
system.pc.south_bridge.ide.disks.dma_write_bytes       180224                       # Number of bytes transfered via DMA writes.
system.pc.south_bridge.ide.disks.dma_write_full_pages           44                       # Number of full page size DMA writes.
system.pc.south_bridge.ide.disks.dma_write_txs           44                       # Number of DMA write transactions.
system.ruby.DMA_Controller.I.allocI_load |           7    100.00%    100.00% |           0      0.00%    100.00%
system.ruby.DMA_Controller.I.allocI_load::total            7                      
system.ruby.DMA_Controller.I.allocI_store |        2816    100.00%    100.00% |           0      0.00%    100.00%
system.ruby.DMA_Controller.I.allocI_store::total         2816                      
system.ruby.DMA_Controller.I.deallocfwdfrom_in |        1799    100.00%    100.00% |           0      0.00%    100.00%
system.ruby.DMA_Controller.I.deallocfwdfrom_in::total         1799                      
system.ruby.DMA_Controller.M.allocTBE    |        1795    100.00%    100.00% |           0      0.00%    100.00%
system.ruby.DMA_Controller.M.allocTBE::total         1795                      
system.ruby.DMA_Controller.M.externalstoreMrespfrom_in |        2816    100.00%    100.00% |           0      0.00%    100.00%
system.ruby.DMA_Controller.M.externalstoreMrespfrom_in::total         2816                      
system.ruby.DMA_Controller.M_evict.Stallmandatory_in |       96762    100.00%    100.00% |           0      0.00%    100.00%
system.ruby.DMA_Controller.M_evict.Stallmandatory_in::total        96762                      
system.ruby.DMA_Controller.S.SloadSEvent |          37    100.00%    100.00% |           0      0.00%    100.00%
system.ruby.DMA_Controller.S.SloadSEvent::total           37                      
system.ruby.DMA_Controller.S.allocTBE    |          18    100.00%    100.00% |           0      0.00%    100.00%
system.ruby.DMA_Controller.S.allocTBE::total           18                      
system.ruby.DMA_Controller.S.deallocTBE  |          13    100.00%    100.00% |           0      0.00%    100.00%
system.ruby.DMA_Controller.S.deallocTBE::total           13                      
system.ruby.DMA_Controller.S.externalloadSrespfrom_in |           7    100.00%    100.00% |           0      0.00%    100.00%
system.ruby.DMA_Controller.S.externalloadSrespfrom_in::total            7                      
system.ruby.DMA_Controller.S_evict.Stallmandatory_in |          53    100.00%    100.00% |           0      0.00%    100.00%
system.ruby.DMA_Controller.S_evict.Stallmandatory_in::total           53                      
system.ruby.DMA_Controller.SloadSEvent   |          37    100.00%    100.00% |           0      0.00%    100.00%
system.ruby.DMA_Controller.SloadSEvent::total           37                      
system.ruby.DMA_Controller.Stallmandatory_in |       96815    100.00%    100.00% |           0      0.00%    100.00%
system.ruby.DMA_Controller.Stallmandatory_in::total        96815                      
system.ruby.DMA_Controller.allocI_load   |           7    100.00%    100.00% |           0      0.00%    100.00%
system.ruby.DMA_Controller.allocI_load::total            7                      
system.ruby.DMA_Controller.allocI_store  |        2816    100.00%    100.00% |           0      0.00%    100.00%
system.ruby.DMA_Controller.allocI_store::total         2816                      
system.ruby.DMA_Controller.allocTBE      |        1813    100.00%    100.00% |           0      0.00%    100.00%
system.ruby.DMA_Controller.allocTBE::total         1813                      
system.ruby.DMA_Controller.deallocTBE    |          13    100.00%    100.00% |           0      0.00%    100.00%
system.ruby.DMA_Controller.deallocTBE::total           13                      
system.ruby.DMA_Controller.deallocfwdfrom_in |        1799    100.00%    100.00% |           0      0.00%    100.00%
system.ruby.DMA_Controller.deallocfwdfrom_in::total         1799                      
system.ruby.DMA_Controller.externalloadSrespfrom_in |           7    100.00%    100.00% |           0      0.00%    100.00%
system.ruby.DMA_Controller.externalloadSrespfrom_in::total            7                      
system.ruby.DMA_Controller.externalstoreMrespfrom_in |        2816    100.00%    100.00% |           0      0.00%    100.00%
system.ruby.DMA_Controller.externalstoreMrespfrom_in::total         2816                      
system.ruby.Directory_Controller.I.allocTBE |       23217     25.42%     25.42% |       23132     25.33%     50.74% |       23377     25.59%     76.34% |       21613     23.66%    100.00%
system.ruby.Directory_Controller.I.allocTBE::total        91339                      
system.ruby.Directory_Controller.I.deallocTBE |       22365     25.44%     25.44% |       22287     25.35%     50.79% |       22505     25.60%     76.39% |       20759     23.61%    100.00%
system.ruby.Directory_Controller.I.deallocTBE::total        87916                      
system.ruby.Directory_Controller.I_GetSL1C1_0.Stallreqto_in |          91     24.20%     24.20% |          58     15.43%     39.63% |         144     38.30%     77.93% |          83     22.07%    100.00%
system.ruby.Directory_Controller.I_GetSL1C1_0.Stallreqto_in::total          376                      
system.ruby.Directory_Controller.M.allocTBE |        6233     27.63%     27.63% |        5185     22.99%     50.62% |        5772     25.59%     76.21% |        5365     23.79%    100.00%
system.ruby.Directory_Controller.M.allocTBE::total        22555                      
system.ruby.Directory_Controller.M.deallocTBE |        6604     27.44%     27.44% |        5565     23.12%     50.56% |        6158     25.59%     76.15% |        5741     23.85%    100.00%
system.ruby.Directory_Controller.M.deallocTBE::total        24068                      
system.ruby.Directory_Controller.M_GetS.Progress |         376     31.07%     31.07% |         293     24.21%     55.29% |         280     23.14%     78.43% |         261     21.57%    100.00%
system.ruby.Directory_Controller.M_GetS.Progress::total         1210                      
system.ruby.Directory_Controller.M_GetS.Stallreqto_in |          26     17.69%     17.69% |          16     10.88%     28.57% |          46     31.29%     59.86% |          59     40.14%    100.00%
system.ruby.Directory_Controller.M_GetS.Stallreqto_in::total          147                      
system.ruby.Directory_Controller.M_GetS_WBL1C1_0.Stallreqto_in |          49     13.92%     13.92% |         117     33.24%     47.16% |          85     24.15%     71.31% |         101     28.69%    100.00%
system.ruby.Directory_Controller.M_GetS_WBL1C1_0.Stallreqto_in::total          352                      
system.ruby.Directory_Controller.Progress |         376     31.07%     31.07% |         293     24.21%     55.29% |         280     23.14%     78.43% |         261     21.57%    100.00%
system.ruby.Directory_Controller.Progress::total         1210                      
system.ruby.Directory_Controller.S.allocTBE |       42848     24.63%     24.63% |       41862     24.07%     48.70% |       46479     26.72%     75.42% |       42763     24.58%    100.00%
system.ruby.Directory_Controller.S.allocTBE::total       173952                      
system.ruby.Directory_Controller.S.deallocTBE |       43328     24.64%     24.64% |       42327     24.07%     48.71% |       46965     26.71%     75.41% |       43241     24.59%    100.00%
system.ruby.Directory_Controller.S.deallocTBE::total       175861                      
system.ruby.Directory_Controller.S_GetSL1C1_0.Stallreqto_in |           4     12.50%     12.50% |           9     28.12%     40.62% |           4     12.50%     53.12% |          15     46.88%    100.00%
system.ruby.Directory_Controller.S_GetSL1C1_0.Stallreqto_in::total           32                      
system.ruby.Directory_Controller.Stallreqto_in |         170     18.74%     18.74% |         200     22.05%     40.79% |         279     30.76%     71.55% |         258     28.45%    100.00%
system.ruby.Directory_Controller.Stallreqto_in::total          907                      
system.ruby.Directory_Controller.allocTBE |       72298     25.12%     25.12% |       70179     24.38%     49.50% |       75628     26.27%     75.77% |       69741     24.23%    100.00%
system.ruby.Directory_Controller.allocTBE::total       287846                      
system.ruby.Directory_Controller.deallocTBE |       72297     25.12%     25.12% |       70179     24.38%     49.50% |       75628     26.27%     75.77% |       69741     24.23%    100.00%
system.ruby.Directory_Controller.deallocTBE::total       287845                      
system.ruby.IFETCH.hit_latency_hist_seqr::bucket_size            1                      
system.ruby.IFETCH.hit_latency_hist_seqr::max_bucket            9                      
system.ruby.IFETCH.hit_latency_hist_seqr::samples    207761900                      
system.ruby.IFETCH.hit_latency_hist_seqr |   207761900    100.00%    100.00% |           0      0.00%    100.00% |           0      0.00%    100.00% |           0      0.00%    100.00% |           0      0.00%    100.00% |           0      0.00%    100.00% |           0      0.00%    100.00% |           0      0.00%    100.00% |           0      0.00%    100.00% |           0      0.00%    100.00%
system.ruby.IFETCH.hit_latency_hist_seqr::total    207761900                      
system.ruby.IFETCH.latency_hist_seqr::bucket_size            1                      
system.ruby.IFETCH.latency_hist_seqr::max_bucket            9                      
system.ruby.IFETCH.latency_hist_seqr::samples    207817416                      
system.ruby.IFETCH.latency_hist_seqr     |   207817416    100.00%    100.00% |           0      0.00%    100.00% |           0      0.00%    100.00% |           0      0.00%    100.00% |           0      0.00%    100.00% |           0      0.00%    100.00% |           0      0.00%    100.00% |           0      0.00%    100.00% |           0      0.00%    100.00% |           0      0.00%    100.00%
system.ruby.IFETCH.latency_hist_seqr::total    207817416                      
system.ruby.IFETCH.miss_latency_hist_seqr::bucket_size            1                      
system.ruby.IFETCH.miss_latency_hist_seqr::max_bucket            9                      
system.ruby.IFETCH.miss_latency_hist_seqr::samples        55516                      
system.ruby.IFETCH.miss_latency_hist_seqr |       55516    100.00%    100.00% |           0      0.00%    100.00% |           0      0.00%    100.00% |           0      0.00%    100.00% |           0      0.00%    100.00% |           0      0.00%    100.00% |           0      0.00%    100.00% |           0      0.00%    100.00% |           0      0.00%    100.00% |           0      0.00%    100.00%
system.ruby.IFETCH.miss_latency_hist_seqr::total        55516                      
system.ruby.L1Cache_Controller.I.allocI_load |       47278     37.58%     37.58% |       24428     19.42%     57.00% |       29327     23.31%     80.31% |       24771     19.69%    100.00%
system.ruby.L1Cache_Controller.I.allocI_load::total       125804                      
system.ruby.L1Cache_Controller.I.allocI_store |        5582     32.50%     32.50% |        2921     17.01%     49.51% |        4824     28.09%     77.59% |        3849     22.41%    100.00%
system.ruby.L1Cache_Controller.I.allocI_store::total        17176                      
system.ruby.L1Cache_Controller.I.deallocfwdfrom_in |       51842     37.31%     37.31% |       26351     18.96%     56.27% |       33136     23.85%     80.12% |       27623     19.88%    100.00%
system.ruby.L1Cache_Controller.I.deallocfwdfrom_in::total       138952                      
system.ruby.L1Cache_Controller.I_store.Progress |          35     42.68%     42.68% |          14     17.07%     59.76% |          15     18.29%     78.05% |          18     21.95%    100.00%
system.ruby.L1Cache_Controller.I_store.Progress::total           82                      
system.ruby.L1Cache_Controller.I_store.Stallfwdfrom_in |           5     38.46%     38.46% |           1      7.69%     46.15% |           2     15.38%     61.54% |           5     38.46%    100.00%
system.ruby.L1Cache_Controller.I_store.Stallfwdfrom_in::total           13                      
system.ruby.L1Cache_Controller.M.MloadMEvent |     2397964     25.18%     25.18% |     2375056     24.94%     50.12% |     2377277     24.96%     75.08% |     2373143     24.92%    100.00%
system.ruby.L1Cache_Controller.M.MloadMEvent::total      9523440                      
system.ruby.L1Cache_Controller.M.MstoreMEvent |     2113434     25.06%     25.06% |     2097200     24.86%     49.92% |     2131415     25.27%     75.19% |     2093017     24.81%    100.00%
system.ruby.L1Cache_Controller.M.MstoreMEvent::total      8435066                      
system.ruby.L1Cache_Controller.M.allocTBE |        7048     33.95%     33.95% |        3449     16.61%     50.56% |        5674     27.33%     77.89% |        4589     22.11%    100.00%
system.ruby.L1Cache_Controller.M.allocTBE::total        20760                      
system.ruby.L1Cache_Controller.M.externalstoreMrespfrom_in |        7156     33.67%     33.67% |        3569     16.79%     50.47% |        5809     27.33%     77.80% |        4718     22.20%    100.00%
system.ruby.L1Cache_Controller.M.externalstoreMrespfrom_in::total        21252                      
system.ruby.L1Cache_Controller.M_evict.Stallmandatory_in |          13     14.13%     14.13% |           2      2.17%     16.30% |          50     54.35%     70.65% |          27     29.35%    100.00%
system.ruby.L1Cache_Controller.M_evict.Stallmandatory_in::total           92                      
system.ruby.L1Cache_Controller.MloadMEvent |     2397964     25.18%     25.18% |     2375056     24.94%     50.12% |     2377277     24.96%     75.08% |     2373143     24.92%    100.00%
system.ruby.L1Cache_Controller.MloadMEvent::total      9523440                      
system.ruby.L1Cache_Controller.MstoreMEvent |     2113434     25.06%     25.06% |     2097200     24.86%     49.92% |     2131415     25.27%     75.19% |     2093017     24.81%    100.00%
system.ruby.L1Cache_Controller.MstoreMEvent::total      8435066                      
system.ruby.L1Cache_Controller.Progress  |        2655     45.69%     45.69% |         866     14.90%     60.59% |        1179     20.29%     80.88% |        1111     19.12%    100.00%
system.ruby.L1Cache_Controller.Progress::total         5811                      
system.ruby.L1Cache_Controller.S.SloadSEvent |    59342679     25.04%     25.04% |    59185950     24.98%     50.02% |    59291154     25.02%     75.04% |    59149246     24.96%    100.00%
system.ruby.L1Cache_Controller.S.SloadSEvent::total    236969029                      
system.ruby.L1Cache_Controller.S.allocTBE |       46967     38.04%     38.04% |       23679     19.18%     57.22% |       28684     23.23%     80.45% |       24136     19.55%    100.00%
system.ruby.L1Cache_Controller.S.allocTBE::total       123466                      
system.ruby.L1Cache_Controller.S.deallocTBE |         598     49.96%     49.96% |         129     10.78%     60.74% |         237     19.80%     80.53% |         233     19.47%    100.00%
system.ruby.L1Cache_Controller.S.deallocTBE::total         1197                      
system.ruby.L1Cache_Controller.S.externalloadSrespfrom_in |       47278     37.58%     37.58% |       24428     19.42%     57.00% |       29327     23.31%     80.31% |       24771     19.69%    100.00%
system.ruby.L1Cache_Controller.S.externalloadSrespfrom_in::total       125804                      
system.ruby.L1Cache_Controller.S_evict.Stallmandatory_in |          61     31.28%     31.28% |          22     11.28%     42.56% |          57     29.23%     71.79% |          55     28.21%    100.00%
system.ruby.L1Cache_Controller.S_evict.Stallmandatory_in::total          195                      
system.ruby.L1Cache_Controller.S_store.Progress |        2620     45.73%     45.73% |         852     14.87%     60.60% |        1164     20.32%     80.92% |        1093     19.08%    100.00%
system.ruby.L1Cache_Controller.S_store.Progress::total         5729                      
system.ruby.L1Cache_Controller.S_store.Stallfwdfrom_in |           3     42.86%     42.86% |           0      0.00%     42.86% |           1     14.29%     57.14% |           3     42.86%    100.00%
system.ruby.L1Cache_Controller.S_store.Stallfwdfrom_in::total            7                      
system.ruby.L1Cache_Controller.SloadSEvent |    59342679     25.04%     25.04% |    59185950     24.98%     50.02% |    59291154     25.02%     75.04% |    59149246     24.96%    100.00%
system.ruby.L1Cache_Controller.SloadSEvent::total    236969029                      
system.ruby.L1Cache_Controller.Stallfwdfrom_in |           8     40.00%     40.00% |           1      5.00%     45.00% |           3     15.00%     60.00% |           8     40.00%    100.00%
system.ruby.L1Cache_Controller.Stallfwdfrom_in::total           20                      
system.ruby.L1Cache_Controller.Stallmandatory_in |          74     25.78%     25.78% |          24      8.36%     34.15% |         107     37.28%     71.43% |          82     28.57%    100.00%
system.ruby.L1Cache_Controller.Stallmandatory_in::total          287                      
system.ruby.L1Cache_Controller.allocI_load |       47278     37.58%     37.58% |       24428     19.42%     57.00% |       29327     23.31%     80.31% |       24771     19.69%    100.00%
system.ruby.L1Cache_Controller.allocI_load::total       125804                      
system.ruby.L1Cache_Controller.allocI_store |        5582     32.50%     32.50% |        2921     17.01%     49.51% |        4824     28.09%     77.59% |        3849     22.41%    100.00%
system.ruby.L1Cache_Controller.allocI_store::total        17176                      
system.ruby.L1Cache_Controller.allocTBE  |       54015     37.45%     37.45% |       27128     18.81%     56.26% |       34358     23.82%     80.08% |       28725     19.92%    100.00%
system.ruby.L1Cache_Controller.allocTBE::total       144226                      
system.ruby.L1Cache_Controller.deallocTBE |         598     49.96%     49.96% |         129     10.78%     60.74% |         237     19.80%     80.53% |         233     19.47%    100.00%
system.ruby.L1Cache_Controller.deallocTBE::total         1197                      
system.ruby.L1Cache_Controller.deallocfwdfrom_in |       51842     37.31%     37.31% |       26351     18.96%     56.27% |       33136     23.85%     80.12% |       27623     19.88%    100.00%
system.ruby.L1Cache_Controller.deallocfwdfrom_in::total       138952                      
system.ruby.L1Cache_Controller.externalloadSrespfrom_in |       47278     37.58%     37.58% |       24428     19.42%     57.00% |       29327     23.31%     80.31% |       24771     19.69%    100.00%
system.ruby.L1Cache_Controller.externalloadSrespfrom_in::total       125804                      
system.ruby.L1Cache_Controller.externalstoreMrespfrom_in |        7156     33.67%     33.67% |        3569     16.79%     50.47% |        5809     27.33%     77.80% |        4718     22.20%    100.00%
system.ruby.L1Cache_Controller.externalstoreMrespfrom_in::total        21252                      
system.ruby.LD.hit_latency_hist_seqr::bucket_size            1                      
system.ruby.LD.hit_latency_hist_seqr::max_bucket            9                      
system.ruby.LD.hit_latency_hist_seqr::samples     38730569                      
system.ruby.LD.hit_latency_hist_seqr     |    38730569    100.00%    100.00% |           0      0.00%    100.00% |           0      0.00%    100.00% |           0      0.00%    100.00% |           0      0.00%    100.00% |           0      0.00%    100.00% |           0      0.00%    100.00% |           0      0.00%    100.00% |           0      0.00%    100.00% |           0      0.00%    100.00%
system.ruby.LD.hit_latency_hist_seqr::total     38730569                      
system.ruby.LD.latency_hist_seqr::bucket_size            1                      
system.ruby.LD.latency_hist_seqr::max_bucket            9                      
system.ruby.LD.latency_hist_seqr::samples     38800857                      
system.ruby.LD.latency_hist_seqr         |    38800857    100.00%    100.00% |           0      0.00%    100.00% |           0      0.00%    100.00% |           0      0.00%    100.00% |           0      0.00%    100.00% |           0      0.00%    100.00% |           0      0.00%    100.00% |           0      0.00%    100.00% |           0      0.00%    100.00% |           0      0.00%    100.00%
system.ruby.LD.latency_hist_seqr::total      38800857                      
system.ruby.LD.miss_latency_hist_seqr::bucket_size            1                      
system.ruby.LD.miss_latency_hist_seqr::max_bucket            9                      
system.ruby.LD.miss_latency_hist_seqr::samples        70288                      
system.ruby.LD.miss_latency_hist_seqr    |       70288    100.00%    100.00% |           0      0.00%    100.00% |           0      0.00%    100.00% |           0      0.00%    100.00% |           0      0.00%    100.00% |           0      0.00%    100.00% |           0      0.00%    100.00% |           0      0.00%    100.00% |           0      0.00%    100.00% |           0      0.00%    100.00%
system.ruby.LD.miss_latency_hist_seqr::total        70288                      
system.ruby.Locked_RMW_Read.hit_latency_hist_seqr::bucket_size            1                      
system.ruby.Locked_RMW_Read.hit_latency_hist_seqr::max_bucket            9                      
system.ruby.Locked_RMW_Read.hit_latency_hist_seqr::samples         3768                      
system.ruby.Locked_RMW_Read.hit_latency_hist_seqr |        3768    100.00%    100.00% |           0      0.00%    100.00% |           0      0.00%    100.00% |           0      0.00%    100.00% |           0      0.00%    100.00% |           0      0.00%    100.00% |           0      0.00%    100.00% |           0      0.00%    100.00% |           0      0.00%    100.00% |           0      0.00%    100.00%
system.ruby.Locked_RMW_Read.hit_latency_hist_seqr::total         3768                      
system.ruby.Locked_RMW_Read.latency_hist_seqr::bucket_size            1                      
system.ruby.Locked_RMW_Read.latency_hist_seqr::max_bucket            9                      
system.ruby.Locked_RMW_Read.latency_hist_seqr::samples         5264                      
system.ruby.Locked_RMW_Read.latency_hist_seqr |        5264    100.00%    100.00% |           0      0.00%    100.00% |           0      0.00%    100.00% |           0      0.00%    100.00% |           0      0.00%    100.00% |           0      0.00%    100.00% |           0      0.00%    100.00% |           0      0.00%    100.00% |           0      0.00%    100.00% |           0      0.00%    100.00%
system.ruby.Locked_RMW_Read.latency_hist_seqr::total         5264                      
system.ruby.Locked_RMW_Read.miss_latency_hist_seqr::bucket_size            1                      
system.ruby.Locked_RMW_Read.miss_latency_hist_seqr::max_bucket            9                      
system.ruby.Locked_RMW_Read.miss_latency_hist_seqr::samples         1496                      
system.ruby.Locked_RMW_Read.miss_latency_hist_seqr |        1496    100.00%    100.00% |           0      0.00%    100.00% |           0      0.00%    100.00% |           0      0.00%    100.00% |           0      0.00%    100.00% |           0      0.00%    100.00% |           0      0.00%    100.00% |           0      0.00%    100.00% |           0      0.00%    100.00% |           0      0.00%    100.00%
system.ruby.Locked_RMW_Read.miss_latency_hist_seqr::total         1496                      
system.ruby.Locked_RMW_Write.hit_latency_hist_seqr::bucket_size            1                      
system.ruby.Locked_RMW_Write.hit_latency_hist_seqr::max_bucket            9                      
system.ruby.Locked_RMW_Write.hit_latency_hist_seqr::samples         5264                      
system.ruby.Locked_RMW_Write.hit_latency_hist_seqr |        5264    100.00%    100.00% |           0      0.00%    100.00% |           0      0.00%    100.00% |           0      0.00%    100.00% |           0      0.00%    100.00% |           0      0.00%    100.00% |           0      0.00%    100.00% |           0      0.00%    100.00% |           0      0.00%    100.00% |           0      0.00%    100.00%
system.ruby.Locked_RMW_Write.hit_latency_hist_seqr::total         5264                      
system.ruby.Locked_RMW_Write.latency_hist_seqr::bucket_size            1                      
system.ruby.Locked_RMW_Write.latency_hist_seqr::max_bucket            9                      
system.ruby.Locked_RMW_Write.latency_hist_seqr::samples         5264                      
system.ruby.Locked_RMW_Write.latency_hist_seqr |        5264    100.00%    100.00% |           0      0.00%    100.00% |           0      0.00%    100.00% |           0      0.00%    100.00% |           0      0.00%    100.00% |           0      0.00%    100.00% |           0      0.00%    100.00% |           0      0.00%    100.00% |           0      0.00%    100.00% |           0      0.00%    100.00%
system.ruby.Locked_RMW_Write.latency_hist_seqr::total         5264                      
system.ruby.RMW_Read.hit_latency_hist_seqr::bucket_size            1                      
system.ruby.RMW_Read.hit_latency_hist_seqr::max_bucket            9                      
system.ruby.RMW_Read.hit_latency_hist_seqr::samples        13812                      
system.ruby.RMW_Read.hit_latency_hist_seqr |       13812    100.00%    100.00% |           0      0.00%    100.00% |           0      0.00%    100.00% |           0      0.00%    100.00% |           0      0.00%    100.00% |           0      0.00%    100.00% |           0      0.00%    100.00% |           0      0.00%    100.00% |           0      0.00%    100.00% |           0      0.00%    100.00%
system.ruby.RMW_Read.hit_latency_hist_seqr::total        13812                      
system.ruby.RMW_Read.latency_hist_seqr::bucket_size            1                      
system.ruby.RMW_Read.latency_hist_seqr::max_bucket            9                      
system.ruby.RMW_Read.latency_hist_seqr::samples        16144                      
system.ruby.RMW_Read.latency_hist_seqr   |       16144    100.00%    100.00% |           0      0.00%    100.00% |           0      0.00%    100.00% |           0      0.00%    100.00% |           0      0.00%    100.00% |           0      0.00%    100.00% |           0      0.00%    100.00% |           0      0.00%    100.00% |           0      0.00%    100.00% |           0      0.00%    100.00%
system.ruby.RMW_Read.latency_hist_seqr::total        16144                      
system.ruby.RMW_Read.miss_latency_hist_seqr::bucket_size            1                      
system.ruby.RMW_Read.miss_latency_hist_seqr::max_bucket            9                      
system.ruby.RMW_Read.miss_latency_hist_seqr::samples         2332                      
system.ruby.RMW_Read.miss_latency_hist_seqr |        2332    100.00%    100.00% |           0      0.00%    100.00% |           0      0.00%    100.00% |           0      0.00%    100.00% |           0      0.00%    100.00% |           0      0.00%    100.00% |           0      0.00%    100.00% |           0      0.00%    100.00% |           0      0.00%    100.00% |           0      0.00%    100.00%
system.ruby.RMW_Read.miss_latency_hist_seqr::total         2332                      
system.ruby.ST.hit_latency_hist_seqr::bucket_size            1                      
system.ruby.ST.hit_latency_hist_seqr::max_bucket            9                      
system.ruby.ST.hit_latency_hist_seqr::samples      8412222                      
system.ruby.ST.hit_latency_hist_seqr     |     8412222    100.00%    100.00% |           0      0.00%    100.00% |           0      0.00%    100.00% |           0      0.00%    100.00% |           0      0.00%    100.00% |           0      0.00%    100.00% |           0      0.00%    100.00% |           0      0.00%    100.00% |           0      0.00%    100.00% |           0      0.00%    100.00%
system.ruby.ST.hit_latency_hist_seqr::total      8412222                      
system.ruby.ST.latency_hist_seqr::bucket_size            1                      
system.ruby.ST.latency_hist_seqr::max_bucket            9                      
system.ruby.ST.latency_hist_seqr::samples      8429646                      
system.ruby.ST.latency_hist_seqr         |     8429646    100.00%    100.00% |           0      0.00%    100.00% |           0      0.00%    100.00% |           0      0.00%    100.00% |           0      0.00%    100.00% |           0      0.00%    100.00% |           0      0.00%    100.00% |           0      0.00%    100.00% |           0      0.00%    100.00% |           0      0.00%    100.00%
system.ruby.ST.latency_hist_seqr::total       8429646                      
system.ruby.ST.miss_latency_hist_seqr::bucket_size            1                      
system.ruby.ST.miss_latency_hist_seqr::max_bucket            9                      
system.ruby.ST.miss_latency_hist_seqr::samples        17424                      
system.ruby.ST.miss_latency_hist_seqr    |       17424    100.00%    100.00% |           0      0.00%    100.00% |           0      0.00%    100.00% |           0      0.00%    100.00% |           0      0.00%    100.00% |           0      0.00%    100.00% |           0      0.00%    100.00% |           0      0.00%    100.00% |           0      0.00%    100.00% |           0      0.00%    100.00%
system.ruby.ST.miss_latency_hist_seqr::total        17424                      
system.ruby.dir_cntrl0.fwdFrom.avg_buf_msgs     0.001586                       # Average number of messages in buffer
system.ruby.dir_cntrl0.fwdFrom.avg_stall_time  2999.025941                       # Average number of cycles messages are stalled in this MB
system.ruby.dir_cntrl0.reqTo.avg_buf_msgs     0.000549                       # Average number of messages in buffer
system.ruby.dir_cntrl0.reqTo.avg_stall_time  4548.938507                       # Average number of cycles messages are stalled in this MB
system.ruby.dir_cntrl0.requestToMemory.avg_buf_msgs     0.000316                       # Average number of messages in buffer
system.ruby.dir_cntrl0.requestToMemory.avg_stall_time   499.998324                       # Average number of cycles messages are stalled in this MB
system.ruby.dir_cntrl0.respFrom.avg_buf_msgs     0.001871                       # Average number of messages in buffer
system.ruby.dir_cntrl0.respFrom.avg_stall_time  3013.042989                       # Average number of cycles messages are stalled in this MB
system.ruby.dir_cntrl0.respTo.avg_buf_msgs     0.000003                       # Average number of messages in buffer
system.ruby.dir_cntrl0.respTo.avg_stall_time 23602.913047                       # Average number of cycles messages are stalled in this MB
system.ruby.dir_cntrl0.responseFromMemory.avg_buf_msgs     0.000316                       # Average number of messages in buffer
system.ruby.dir_cntrl0.responseFromMemory.avg_stall_time   499.997701                       # Average number of cycles messages are stalled in this MB
system.ruby.dir_cntrl1.fwdFrom.avg_buf_msgs     0.001524                       # Average number of messages in buffer
system.ruby.dir_cntrl1.fwdFrom.avg_stall_time  2999.439871                       # Average number of cycles messages are stalled in this MB
system.ruby.dir_cntrl1.reqTo.avg_buf_msgs     0.000535                       # Average number of messages in buffer
system.ruby.dir_cntrl1.reqTo.avg_stall_time  4677.107289                       # Average number of cycles messages are stalled in this MB
system.ruby.dir_cntrl1.requestToMemory.avg_buf_msgs     0.000306                       # Average number of messages in buffer
system.ruby.dir_cntrl1.requestToMemory.avg_stall_time   499.999184                       # Average number of cycles messages are stalled in this MB
system.ruby.dir_cntrl1.respFrom.avg_buf_msgs     0.001826                       # Average number of messages in buffer
system.ruby.dir_cntrl1.respFrom.avg_stall_time  3015.757358                       # Average number of cycles messages are stalled in this MB
system.ruby.dir_cntrl1.respTo.avg_buf_msgs     0.000002                       # Average number of messages in buffer
system.ruby.dir_cntrl1.respTo.avg_stall_time 24442.165588                       # Average number of cycles messages are stalled in this MB
system.ruby.dir_cntrl1.responseFromMemory.avg_buf_msgs     0.000306                       # Average number of messages in buffer
system.ruby.dir_cntrl1.responseFromMemory.avg_stall_time   499.998561                       # Average number of cycles messages are stalled in this MB
system.ruby.dir_cntrl2.fwdFrom.avg_buf_msgs     0.001656                       # Average number of messages in buffer
system.ruby.dir_cntrl2.fwdFrom.avg_stall_time  2999.657334                       # Average number of cycles messages are stalled in this MB
system.ruby.dir_cntrl2.reqTo.avg_buf_msgs     0.000582                       # Average number of messages in buffer
system.ruby.dir_cntrl2.reqTo.avg_stall_time  4886.206898                       # Average number of cycles messages are stalled in this MB
system.ruby.dir_cntrl2.requestToMemory.avg_buf_msgs     0.000328                       # Average number of messages in buffer
system.ruby.dir_cntrl2.requestToMemory.avg_stall_time   499.999106                       # Average number of cycles messages are stalled in this MB
system.ruby.dir_cntrl2.respFrom.avg_buf_msgs     0.001951                       # Average number of messages in buffer
system.ruby.dir_cntrl2.respFrom.avg_stall_time  3013.694640                       # Average number of cycles messages are stalled in this MB
system.ruby.dir_cntrl2.respTo.avg_buf_msgs     0.000002                       # Average number of messages in buffer
system.ruby.dir_cntrl2.respTo.avg_stall_time 24435.045486                       # Average number of cycles messages are stalled in this MB
system.ruby.dir_cntrl2.responseFromMemory.avg_buf_msgs     0.000328                       # Average number of messages in buffer
system.ruby.dir_cntrl2.responseFromMemory.avg_stall_time   499.998479                       # Average number of cycles messages are stalled in this MB
system.ruby.dir_cntrl3.fwdFrom.avg_buf_msgs     0.001524                       # Average number of messages in buffer
system.ruby.dir_cntrl3.fwdFrom.avg_stall_time  2999.119919                       # Average number of cycles messages are stalled in this MB
system.ruby.dir_cntrl3.reqTo.avg_buf_msgs     0.000536                       # Average number of messages in buffer
system.ruby.dir_cntrl3.reqTo.avg_stall_time  4944.862981                       # Average number of cycles messages are stalled in this MB
system.ruby.dir_cntrl3.requestToMemory.avg_buf_msgs     0.000304                       # Average number of messages in buffer
system.ruby.dir_cntrl3.requestToMemory.avg_stall_time   499.999967                       # Average number of cycles messages are stalled in this MB
system.ruby.dir_cntrl3.respFrom.avg_buf_msgs     0.001817                       # Average number of messages in buffer
system.ruby.dir_cntrl3.respFrom.avg_stall_time  3016.895180                       # Average number of cycles messages are stalled in this MB
system.ruby.dir_cntrl3.respTo.avg_buf_msgs     0.000002                       # Average number of messages in buffer
system.ruby.dir_cntrl3.respTo.avg_stall_time 25372.158321                       # Average number of cycles messages are stalled in this MB
system.ruby.dir_cntrl3.responseFromMemory.avg_buf_msgs     0.000305                       # Average number of messages in buffer
system.ruby.dir_cntrl3.responseFromMemory.avg_stall_time   499.999340                       # Average number of cycles messages are stalled in this MB
system.ruby.dma_cntrl0.cache.demand_accesses            0                       # Number of cache demand accesses
system.ruby.dma_cntrl0.cache.demand_hits            0                       # Number of cache demand hits
system.ruby.dma_cntrl0.cache.demand_misses            0                       # Number of cache demand misses
system.ruby.dma_cntrl0.fully_busy_cycles        17131                       # cycles for which number of transistions == max transitions
system.ruby.dma_cntrl0.fwdFrom.avg_buf_msgs     0.000013                       # Average number of messages in buffer
system.ruby.dma_cntrl0.fwdFrom.avg_stall_time  7340.243876                       # Average number of cycles messages are stalled in this MB
system.ruby.dma_cntrl0.mandatoryQueue.avg_buf_msgs     0.008479                       # Average number of messages in buffer
system.ruby.dma_cntrl0.mandatoryQueue.avg_stall_time 516977.070257                       # Average number of cycles messages are stalled in this MB
system.ruby.dma_cntrl0.reqTo.avg_buf_msgs     0.015405                       # Average number of messages in buffer
system.ruby.dma_cntrl0.reqTo.avg_stall_time 15068.285898                       # Average number of cycles messages are stalled in this MB
system.ruby.dma_cntrl0.respFrom.avg_buf_msgs     0.000021                       # Average number of messages in buffer
system.ruby.dma_cntrl0.respFrom.avg_stall_time 101682.132266                       # Average number of cycles messages are stalled in this MB
system.ruby.dma_cntrl0.respTo.avg_buf_msgs     0.000000                       # Average number of messages in buffer
system.ruby.dma_cntrl0.respTo.avg_stall_time   986.440272                       # Average number of cycles messages are stalled in this MB
system.ruby.hit_latency_hist_seqr::bucket_size            1                      
system.ruby.hit_latency_hist_seqr::max_bucket            9                      
system.ruby.hit_latency_hist_seqr::samples    254927535                      
system.ruby.hit_latency_hist_seqr        |   254927535    100.00%    100.00% |           0      0.00%    100.00% |           0      0.00%    100.00% |           0      0.00%    100.00% |           0      0.00%    100.00% |           0      0.00%    100.00% |           0      0.00%    100.00% |           0      0.00%    100.00% |           0      0.00%    100.00% |           0      0.00%    100.00%
system.ruby.hit_latency_hist_seqr::total    254927535                      
system.ruby.io_controller.cache.demand_accesses            0                       # Number of cache demand accesses
system.ruby.io_controller.cache.demand_hits            0                       # Number of cache demand hits
system.ruby.io_controller.cache.demand_misses            0                       # Number of cache demand misses
system.ruby.l1_cntrl0.cache.demand_accesses            0                       # Number of cache demand accesses
system.ruby.l1_cntrl0.cache.demand_hits             0                       # Number of cache demand hits
system.ruby.l1_cntrl0.cache.demand_misses            0                       # Number of cache demand misses
system.ruby.l1_cntrl0.fully_busy_cycles             3                       # cycles for which number of transistions == max transitions
system.ruby.l1_cntrl0.fwdFrom.avg_buf_msgs     0.000390                       # Average number of messages in buffer
system.ruby.l1_cntrl0.fwdFrom.avg_stall_time  6451.511240                       # Average number of cycles messages are stalled in this MB
system.ruby.l1_cntrl0.mandatoryQueue.avg_buf_msgs     0.483098                       # Average number of messages in buffer
system.ruby.l1_cntrl0.mandatoryQueue.avg_stall_time   907.327652                       # Average number of cycles messages are stalled in this MB
system.ruby.l1_cntrl0.reqTo.avg_buf_msgs     0.000785                       # Average number of messages in buffer
system.ruby.l1_cntrl0.reqTo.avg_stall_time   499.237900                       # Average number of cycles messages are stalled in this MB
system.ruby.l1_cntrl0.respFrom.avg_buf_msgs     0.000412                       # Average number of messages in buffer
system.ruby.l1_cntrl0.respFrom.avg_stall_time 16369.673035                       # Average number of cycles messages are stalled in this MB
system.ruby.l1_cntrl0.respTo.avg_buf_msgs     0.000016                       # Average number of messages in buffer
system.ruby.l1_cntrl0.respTo.avg_stall_time   665.450740                       # Average number of cycles messages are stalled in this MB
system.ruby.l1_cntrl1.cache.demand_accesses            0                       # Number of cache demand accesses
system.ruby.l1_cntrl1.cache.demand_hits             0                       # Number of cache demand hits
system.ruby.l1_cntrl1.cache.demand_misses            0                       # Number of cache demand misses
system.ruby.l1_cntrl1.fwdFrom.avg_buf_msgs     0.023605                       # Average number of messages in buffer
system.ruby.l1_cntrl1.fwdFrom.avg_stall_time  6598.094878                       # Average number of cycles messages are stalled in this MB
system.ruby.l1_cntrl1.mandatoryQueue.avg_buf_msgs     0.476973                       # Average number of messages in buffer
system.ruby.l1_cntrl1.mandatoryQueue.avg_stall_time   706.758892                       # Average number of cycles messages are stalled in this MB
system.ruby.l1_cntrl1.reqTo.avg_buf_msgs     0.000398                       # Average number of messages in buffer
system.ruby.l1_cntrl1.reqTo.avg_stall_time   499.265386                       # Average number of cycles messages are stalled in this MB
system.ruby.l1_cntrl1.respFrom.avg_buf_msgs     0.000209                       # Average number of messages in buffer
system.ruby.l1_cntrl1.respFrom.avg_stall_time 16395.858053                       # Average number of cycles messages are stalled in this MB
system.ruby.l1_cntrl1.respTo.avg_buf_msgs     0.000008                       # Average number of messages in buffer
system.ruby.l1_cntrl1.respTo.avg_stall_time   505.841307                       # Average number of cycles messages are stalled in this MB
system.ruby.l1_cntrl2.cache.demand_accesses            0                       # Number of cache demand accesses
system.ruby.l1_cntrl2.cache.demand_hits             0                       # Number of cache demand hits
system.ruby.l1_cntrl2.cache.demand_misses            0                       # Number of cache demand misses
system.ruby.l1_cntrl2.fully_busy_cycles             2                       # cycles for which number of transistions == max transitions
system.ruby.l1_cntrl2.fwdFrom.avg_buf_msgs     0.000248                       # Average number of messages in buffer
system.ruby.l1_cntrl2.fwdFrom.avg_stall_time  6689.946148                       # Average number of cycles messages are stalled in this MB
system.ruby.l1_cntrl2.mandatoryQueue.avg_buf_msgs     0.479409                       # Average number of messages in buffer
system.ruby.l1_cntrl2.mandatoryQueue.avg_stall_time   801.339023                       # Average number of cycles messages are stalled in this MB
system.ruby.l1_cntrl2.reqTo.avg_buf_msgs     0.000500                       # Average number of messages in buffer
system.ruby.l1_cntrl2.reqTo.avg_stall_time   499.999989                       # Average number of cycles messages are stalled in this MB
system.ruby.l1_cntrl2.respFrom.avg_buf_msgs     0.000262                       # Average number of messages in buffer
system.ruby.l1_cntrl2.respFrom.avg_stall_time 16370.661006                       # Average number of cycles messages are stalled in this MB
system.ruby.l1_cntrl2.respTo.avg_buf_msgs     0.000011                       # Average number of messages in buffer
system.ruby.l1_cntrl2.respTo.avg_stall_time   505.420545                       # Average number of cycles messages are stalled in this MB
system.ruby.l1_cntrl3.cache.demand_accesses            0                       # Number of cache demand accesses
system.ruby.l1_cntrl3.cache.demand_hits             0                       # Number of cache demand hits
system.ruby.l1_cntrl3.cache.demand_misses            0                       # Number of cache demand misses
system.ruby.l1_cntrl3.fwdFrom.avg_buf_msgs     0.000207                       # Average number of messages in buffer
system.ruby.l1_cntrl3.fwdFrom.avg_stall_time  6611.906602                       # Average number of cycles messages are stalled in this MB
system.ruby.l1_cntrl3.mandatoryQueue.avg_buf_msgs     0.476950                       # Average number of messages in buffer
system.ruby.l1_cntrl3.mandatoryQueue.avg_stall_time   728.259066                       # Average number of cycles messages are stalled in this MB
system.ruby.l1_cntrl3.reqTo.avg_buf_msgs     0.000417                       # Average number of messages in buffer
system.ruby.l1_cntrl3.reqTo.avg_stall_time   499.999989                       # Average number of cycles messages are stalled in this MB
system.ruby.l1_cntrl3.respFrom.avg_buf_msgs     0.000221                       # Average number of messages in buffer
system.ruby.l1_cntrl3.respFrom.avg_stall_time 16326.399718                       # Average number of cycles messages are stalled in this MB
system.ruby.l1_cntrl3.respTo.avg_buf_msgs     0.000012                       # Average number of messages in buffer
system.ruby.l1_cntrl3.respTo.avg_stall_time   506.471755                       # Average number of cycles messages are stalled in this MB
system.ruby.latency_hist_seqr::bucket_size            1                      
system.ruby.latency_hist_seqr::max_bucket            9                      
system.ruby.latency_hist_seqr::samples      255074591                      
system.ruby.latency_hist_seqr            |   255074591    100.00%    100.00% |           0      0.00%    100.00% |           0      0.00%    100.00% |           0      0.00%    100.00% |           0      0.00%    100.00% |           0      0.00%    100.00% |           0      0.00%    100.00% |           0      0.00%    100.00% |           0      0.00%    100.00% |           0      0.00%    100.00%
system.ruby.latency_hist_seqr::total        255074591                      
system.ruby.miss_latency_hist_seqr::bucket_size            1                      
system.ruby.miss_latency_hist_seqr::max_bucket            9                      
system.ruby.miss_latency_hist_seqr::samples       147056                      
system.ruby.miss_latency_hist_seqr       |      147056    100.00%    100.00% |           0      0.00%    100.00% |           0      0.00%    100.00% |           0      0.00%    100.00% |           0      0.00%    100.00% |           0      0.00%    100.00% |           0      0.00%    100.00% |           0      0.00%    100.00% |           0      0.00%    100.00% |           0      0.00%    100.00%
system.ruby.miss_latency_hist_seqr::total       147056                      
system.ruby.network.average_flit_latency    22.535157                      
system.ruby.network.average_flit_network_latency    12.936269                      
system.ruby.network.average_flit_queueing_latency     9.598888                      
system.ruby.network.average_flit_vnet_latency |   16.316628                       |    5.017040                       |    9.046703                       |         nan                       |         nan                       |         nan                       |         nan                       |         nan                      
system.ruby.network.average_flit_vqueue_latency |    6.679556                       |    6.000014                       |   16.973559                       |         nan                       |         nan                       |         nan                       |         nan                       |         nan                      
system.ruby.network.average_hops             1.004520                      
system.ruby.network.average_packet_latency    18.669222                      
system.ruby.network.average_packet_network_latency    11.418185                      
system.ruby.network.average_packet_queueing_latency     7.251038                      
system.ruby.network.average_packet_vnet_latency |   26.107013                       |    5.017040                       |    6.776617                       |         nan                       |         nan                       |         nan                       |         nan                       |         nan                      
system.ruby.network.average_packet_vqueue_latency |    6.628031                       |    6.000014                       |    8.198790                       |         nan                       |         nan                       |         nan                       |         nan                       |         nan                      
system.ruby.network.avg_link_utilization     0.028263                      
system.ruby.network.avg_vc_load          |    0.012486     44.18%     44.18% |    0.001519      5.37%     49.55% |    0.001446      5.12%     54.67% |    0.001433      5.07%     59.74% |    0.002369      8.38%     68.13% |    0.000266      0.94%     69.06% |    0.000263      0.93%     70.00% |    0.000263      0.93%     70.93% |    0.006143     21.74%     92.66% |    0.000703      2.49%     95.15% |    0.000694      2.46%     97.61% |    0.000676      2.39%    100.00% |           0      0.00%    100.00% |           0      0.00%    100.00% |           0      0.00%    100.00% |           0      0.00%    100.00% |           0      0.00%    100.00% |           0      0.00%    100.00% |           0      0.00%    100.00% |           0      0.00%    100.00% |           0      0.00%    100.00% |           0      0.00%    100.00% |           0      0.00%    100.00% |           0      0.00%    100.00% |           0      0.00%    100.00% |           0      0.00%    100.00% |           0      0.00%    100.00% |           0      0.00%    100.00% |           0      0.00%    100.00% |           0      0.00%    100.00% |           0      0.00%    100.00% |           0      0.00%    100.00%
system.ruby.network.avg_vc_load::total       0.028263                      
system.ruby.network.ext_in_link_utilization      1268154                      
system.ruby.network.ext_out_link_utilization      1268154                      
system.ruby.network.flit_network_latency |    12354592                       |      712229                       |     3338360                       |           0                       |           0                       |           0                       |           0                       |           0                      
system.ruby.network.flit_queueing_latency |     5057613                       |      851774                       |     6263481                       |           0                       |           0                       |           0                       |           0                       |           0                      
system.ruby.network.flits_injected       |      757178     59.71%     59.71% |      141962     11.19%     70.90% |      369014     29.10%    100.00% |           0      0.00%    100.00% |           0      0.00%    100.00% |           0      0.00%    100.00% |           0      0.00%    100.00% |           0      0.00%    100.00%
system.ruby.network.flits_injected::total      1268154                      
system.ruby.network.flits_received       |      757178     59.71%     59.71% |      141962     11.19%     70.90% |      369014     29.10%    100.00% |           0      0.00%    100.00% |           0      0.00%    100.00% |           0      0.00%    100.00% |           0      0.00%    100.00% |           0      0.00%    100.00%
system.ruby.network.flits_received::total      1268154                      
system.ruby.network.int_link_utilization      1273886                      
system.ruby.network.packet_network_latency |     3989726                       |      712229                       |     1950622                       |           0                       |           0                       |           0                       |           0                       |           0                      
system.ruby.network.packet_queueing_latency |     1012909                       |      851774                       |     2359989                       |           0                       |           0                       |           0                       |           0                       |           0                      
system.ruby.network.packets_injected     |      152822     26.23%     26.23% |      141962     24.37%     50.60% |      287846     49.40%    100.00% |           0      0.00%    100.00% |           0      0.00%    100.00% |           0      0.00%    100.00% |           0      0.00%    100.00% |           0      0.00%    100.00%
system.ruby.network.packets_injected::total       582630                      
system.ruby.network.packets_received     |      152822     26.23%     26.23% |      141962     24.37%     50.60% |      287846     49.40%    100.00% |           0      0.00%    100.00% |           0      0.00%    100.00% |           0      0.00%    100.00% |           0      0.00%    100.00% |           0      0.00%    100.00%
system.ruby.network.packets_received::total       582630                      
system.ruby.network.routers0.buffer_reads       757446                      
system.ruby.network.routers0.buffer_writes       757446                      
system.ruby.network.routers0.crossbar_activity       757446                      
system.ruby.network.routers0.sw_input_arbiter_activity       763122                      
system.ruby.network.routers0.sw_output_arbiter_activity       757446                      
system.ruby.network.routers1.buffer_reads       566113                      
system.ruby.network.routers1.buffer_writes       566113                      
system.ruby.network.routers1.crossbar_activity       566113                      
system.ruby.network.routers1.sw_input_arbiter_activity       566364                      
system.ruby.network.routers1.sw_output_arbiter_activity       566113                      
system.ruby.network.routers2.buffer_reads       656842                      
system.ruby.network.routers2.buffer_writes       656842                      
system.ruby.network.routers2.crossbar_activity       656842                      
system.ruby.network.routers2.sw_input_arbiter_activity       658138                      
system.ruby.network.routers2.sw_output_arbiter_activity       656842                      
system.ruby.network.routers3.buffer_reads       561639                      
system.ruby.network.routers3.buffer_writes       561639                      
system.ruby.network.routers3.crossbar_activity       561639                      
system.ruby.network.routers3.sw_input_arbiter_activity       561978                      
system.ruby.network.routers3.sw_output_arbiter_activity       561639                      
system.ruby.outstanding_req_hist_seqr::bucket_size            1                      
system.ruby.outstanding_req_hist_seqr::max_bucket            9                      
system.ruby.outstanding_req_hist_seqr::samples    255074592                      
system.ruby.outstanding_req_hist_seqr::mean     1.000000                      
system.ruby.outstanding_req_hist_seqr::gmean     1.000000                      
system.ruby.outstanding_req_hist_seqr::stdev     0.000234                      
system.ruby.outstanding_req_hist_seqr    |           0      0.00%      0.00% |   255074578    100.00%    100.00% |          14      0.00%    100.00% |           0      0.00%    100.00% |           0      0.00%    100.00% |           0      0.00%    100.00% |           0      0.00%    100.00% |           0      0.00%    100.00% |           0      0.00%    100.00% |           0      0.00%    100.00%
system.ruby.outstanding_req_hist_seqr::total    255074592                      
system.switch_cpus0.Branches                  2648971                       # Number of branches fetched
system.switch_cpus0.committedInsts           34397720                       # Number of instructions committed
system.switch_cpus0.committedOps             63663195                       # Number of ops (including micro ops) committed
system.switch_cpus0.dtb.rdAccesses            9704143                       # TLB accesses on read requests
system.switch_cpus0.dtb.rdMisses                 2858                       # TLB misses on read requests
system.switch_cpus0.dtb.wrAccesses            2114679                       # TLB accesses on write requests
system.switch_cpus0.dtb.wrMisses                  498                       # TLB misses on write requests
system.switch_cpus0.idle_fraction            0.006802                       # Percentage of idle cycles
system.switch_cpus0.itb.rdAccesses                  0                       # TLB accesses on read requests
system.switch_cpus0.itb.rdMisses                    0                       # TLB misses on read requests
system.switch_cpus0.itb.wrAccesses           52078987                       # TLB accesses on write requests
system.switch_cpus0.itb.wrMisses                  412                       # TLB misses on write requests
system.switch_cpus0.kern.inst.arm                   0                       # number of arm instructions executed
system.switch_cpus0.kern.inst.quiesce               0                       # number of quiesce instructions executed
system.switch_cpus0.not_idle_fraction        0.993198                       # Percentage of non-idle cycles
system.switch_cpus0.numCycles               134813600                       # number of cpu cycles simulated
system.switch_cpus0.numWorkItemsCompleted            0                       # number of work items this cpu completed
system.switch_cpus0.numWorkItemsStarted             0                       # number of work items this cpu started
system.switch_cpus0.num_busy_cycles      133896587.374141                       # Number of busy cycles
system.switch_cpus0.num_cc_register_reads      9516931                       # number of times the CC registers were read
system.switch_cpus0.num_cc_register_writes      7369345                       # number of times the CC registers were written
system.switch_cpus0.num_conditional_control_insts      1318918                       # number of instructions that are conditional controls
system.switch_cpus0.num_fp_alu_accesses      41265820                       # Number of float alu accesses
system.switch_cpus0.num_fp_insts             41265820                       # number of float instructions
system.switch_cpus0.num_fp_register_reads     63741630                       # number of times the floating registers were read
system.switch_cpus0.num_fp_register_writes     38570825                       # number of times the floating registers were written
system.switch_cpus0.num_func_calls             851315                       # number of times a function call or return occured
system.switch_cpus0.num_idle_cycles      917012.625859                       # Number of idle cycles
system.switch_cpus0.num_int_alu_accesses     32469706                       # Number of integer alu accesses
system.switch_cpus0.num_int_insts            32469706                       # number of integer instructions
system.switch_cpus0.num_int_register_reads     63561610                       # number of times the integer registers were read
system.switch_cpus0.num_int_register_writes     20016374                       # number of times the integer registers were written
system.switch_cpus0.num_load_insts            9701298                       # Number of load instructions
system.switch_cpus0.num_mem_refs             11815521                       # number of memory refs
system.switch_cpus0.num_store_insts           2114223                       # Number of store instructions
system.switch_cpus0.num_vec_alu_accesses            0                       # Number of vector alu accesses
system.switch_cpus0.num_vec_insts                   0                       # number of vector instructions
system.switch_cpus0.num_vec_register_reads            0                       # number of times the vector registers were read
system.switch_cpus0.num_vec_register_writes            0                       # number of times the vector registers were written
system.switch_cpus0.op_class::No_OpClass        13301      0.02%      0.02% # Class of executed instruction
system.switch_cpus0.op_class::IntAlu         23150655     36.36%     36.39% # Class of executed instruction
system.switch_cpus0.op_class::IntMult            1889      0.00%     36.39% # Class of executed instruction
system.switch_cpus0.op_class::IntDiv             3179      0.00%     36.39% # Class of executed instruction
system.switch_cpus0.op_class::FloatAdd        5725830      8.99%     45.39% # Class of executed instruction
system.switch_cpus0.op_class::FloatCmp              0      0.00%     45.39% # Class of executed instruction
system.switch_cpus0.op_class::FloatCvt             80      0.00%     45.39% # Class of executed instruction
system.switch_cpus0.op_class::FloatMult             0      0.00%     45.39% # Class of executed instruction
system.switch_cpus0.op_class::FloatMultAcc            0      0.00%     45.39% # Class of executed instruction
system.switch_cpus0.op_class::FloatDiv              0      0.00%     45.39% # Class of executed instruction
system.switch_cpus0.op_class::FloatMisc             0      0.00%     45.39% # Class of executed instruction
system.switch_cpus0.op_class::FloatSqrt             0      0.00%     45.39% # Class of executed instruction
system.switch_cpus0.op_class::SimdAdd              44      0.00%     45.39% # Class of executed instruction
system.switch_cpus0.op_class::SimdAddAcc            0      0.00%     45.39% # Class of executed instruction
system.switch_cpus0.op_class::SimdAlu         7263855     11.41%     56.80% # Class of executed instruction
system.switch_cpus0.op_class::SimdCmp               0      0.00%     56.80% # Class of executed instruction
system.switch_cpus0.op_class::SimdCvt              88      0.00%     56.80% # Class of executed instruction
system.switch_cpus0.op_class::SimdMisc        1192444      1.87%     58.67% # Class of executed instruction
system.switch_cpus0.op_class::SimdMult              0      0.00%     58.67% # Class of executed instruction
system.switch_cpus0.op_class::SimdMultAcc            0      0.00%     58.67% # Class of executed instruction
system.switch_cpus0.op_class::SimdShift            12      0.00%     58.67% # Class of executed instruction
system.switch_cpus0.op_class::SimdShiftAcc            0      0.00%     58.67% # Class of executed instruction
system.switch_cpus0.op_class::SimdDiv               0      0.00%     58.67% # Class of executed instruction
system.switch_cpus0.op_class::SimdSqrt              0      0.00%     58.67% # Class of executed instruction
system.switch_cpus0.op_class::SimdFloatAdd      4059900      6.38%     65.05% # Class of executed instruction
system.switch_cpus0.op_class::SimdFloatAlu            0      0.00%     65.05% # Class of executed instruction
system.switch_cpus0.op_class::SimdFloatCmp            0      0.00%     65.05% # Class of executed instruction
system.switch_cpus0.op_class::SimdFloatCvt      3996400      6.28%     71.32% # Class of executed instruction
system.switch_cpus0.op_class::SimdFloatDiv       409600      0.64%     71.97% # Class of executed instruction
system.switch_cpus0.op_class::SimdFloatMisc            0      0.00%     71.97% # Class of executed instruction
system.switch_cpus0.op_class::SimdFloatMult      5928000      9.31%     81.28% # Class of executed instruction
system.switch_cpus0.op_class::SimdFloatMultAcc            0      0.00%     81.28% # Class of executed instruction
system.switch_cpus0.op_class::SimdFloatSqrt       102400      0.16%     81.44% # Class of executed instruction
system.switch_cpus0.op_class::SimdReduceAdd            0      0.00%     81.44% # Class of executed instruction
system.switch_cpus0.op_class::SimdReduceAlu            0      0.00%     81.44% # Class of executed instruction
system.switch_cpus0.op_class::SimdReduceCmp            0      0.00%     81.44% # Class of executed instruction
system.switch_cpus0.op_class::SimdFloatReduceAdd            0      0.00%     81.44% # Class of executed instruction
system.switch_cpus0.op_class::SimdFloatReduceCmp            0      0.00%     81.44% # Class of executed instruction
system.switch_cpus0.op_class::SimdAes               0      0.00%     81.44% # Class of executed instruction
system.switch_cpus0.op_class::SimdAesMix            0      0.00%     81.44% # Class of executed instruction
system.switch_cpus0.op_class::SimdSha1Hash            0      0.00%     81.44% # Class of executed instruction
system.switch_cpus0.op_class::SimdSha1Hash2            0      0.00%     81.44% # Class of executed instruction
system.switch_cpus0.op_class::SimdSha256Hash            0      0.00%     81.44% # Class of executed instruction
system.switch_cpus0.op_class::SimdSha256Hash2            0      0.00%     81.44% # Class of executed instruction
system.switch_cpus0.op_class::SimdShaSigma2            0      0.00%     81.44% # Class of executed instruction
system.switch_cpus0.op_class::SimdShaSigma3            0      0.00%     81.44% # Class of executed instruction
system.switch_cpus0.op_class::SimdPredAlu            0      0.00%     81.44% # Class of executed instruction
system.switch_cpus0.op_class::MemRead         2059003      3.23%     84.67% # Class of executed instruction
system.switch_cpus0.op_class::MemWrite         855355      1.34%     86.02% # Class of executed instruction
system.switch_cpus0.op_class::FloatMemRead      7642295     12.00%     98.02% # Class of executed instruction
system.switch_cpus0.op_class::FloatMemWrite      1258868      1.98%    100.00% # Class of executed instruction
system.switch_cpus0.op_class::IprAccess             0      0.00%    100.00% # Class of executed instruction
system.switch_cpus0.op_class::InstPrefetch            0      0.00%    100.00% # Class of executed instruction
system.switch_cpus0.op_class::total          63663198                       # Class of executed instruction
system.switch_cpus1.Branches                  2573152                       # Number of branches fetched
system.switch_cpus1.committedInsts           34232597                       # Number of instructions committed
system.switch_cpus1.committedOps             63292115                       # Number of ops (including micro ops) committed
system.switch_cpus1.dtb.rdAccesses            9685798                       # TLB accesses on read requests
system.switch_cpus1.dtb.rdMisses                 2490                       # TLB misses on read requests
system.switch_cpus1.dtb.wrAccesses            2096141                       # TLB accesses on write requests
system.switch_cpus1.dtb.wrMisses                  480                       # TLB misses on write requests
system.switch_cpus1.idle_fraction            0.031146                       # Percentage of idle cycles
system.switch_cpus1.itb.rdAccesses                  0                       # TLB accesses on read requests
system.switch_cpus1.itb.rdMisses                    0                       # TLB misses on read requests
[...]
system.mem_ctrls1.llc.tags.tagsinuse      3153.989263                       # Cycle average of tags in use
system.mem_ctrls1.llc.tags.total_refs               0                       # Total number of references to valid blocks.
system.mem_ctrls1.llc.tags.sampled_refs             0                       # Sample count of references to valid blocks.
system.mem_ctrls1.llc.tags.avg_refs               nan                       # Average number of references to valid blocks.
system.mem_ctrls1.llc.tags.warmup_cycle  99288135048500                       # Cycle when the warmup percentage was hit.
system.mem_ctrls1.llc.tags.occ_blocks::.ruby.dir_cntrl1  3153.989263                       # Average occupied blocks per requestor
system.mem_ctrls1.llc.tags.occ_percent::.ruby.dir_cntrl1     0.012032                       # Average percentage of cache occupancy
system.mem_ctrls1.llc.tags.occ_percent::total     0.012032                       # Average percentage of cache occupancy
system.mem_ctrls1.llc.tags.occ_task_id_blocks::1024         3348                       # Occupied blocks per task id
system.mem_ctrls1.llc.tags.age_task_id_blocks_1024::0            5                       # Occupied blocks per task id
system.mem_ctrls1.llc.tags.age_task_id_blocks_1024::1            4                       # Occupied blocks per task id
system.mem_ctrls1.llc.tags.age_task_id_blocks_1024::3          153                       # Occupied blocks per task id
system.mem_ctrls1.llc.tags.age_task_id_blocks_1024::4         3186                       # Occupied blocks per task id
system.mem_ctrls1.llc.tags.occ_task_id_percent::1024     0.012772                       # Percentage of cache occupancy per task id
system.mem_ctrls1.llc.tags.tag_accesses        663892                       # Number of tag accesses
system.mem_ctrls1.llc.tags.data_accesses        41284                       # Number of data accesses
system.mem_ctrls1.llc.tags.power_state.pwrStateResidencyTicks::UNDEFINED 99355541703001                       # Cumulative time (in ticks) in various power states
system.mem_ctrls1.rank1.actEnergy             4712400                       # Energy for activate commands per rank (pJ)
system.mem_ctrls1.rank1.preEnergy             2500905                       # Energy for precharge commands per rank (pJ)
system.mem_ctrls1.rank1.readEnergy           14094360                       # Energy for read commands per rank (pJ)
system.mem_ctrls1.rank1.writeEnergy                 0                       # Energy for write commands per rank (pJ)
system.mem_ctrls1.rank1.refreshEnergy    5320938480.000001                       # Energy for refresh commands per rank (pJ)
system.mem_ctrls1.rank1.actBackEnergy      1508663460                       # Energy for active background per rank (pJ)
system.mem_ctrls1.rank1.preBackEnergy     24613596000                       # Energy for precharge background per rank (pJ)
system.mem_ctrls1.rank1.actPowerDownEnergy            0                       # Energy for active power-down per rank (pJ)
system.mem_ctrls1.rank1.prePowerDownEnergy            0                       # Energy for precharge power-down per rank (pJ)
system.mem_ctrls1.rank1.selfRefreshEnergy            0                       # Energy for self refresh per rank (pJ)
system.mem_ctrls1.rank1.totalEnergy       31464505605                       # Total energy per rank (pJ)
system.mem_ctrls1.rank1.averagePower       466.785143                       # Core power per rank (mW)
system.mem_ctrls1.rank1.totalIdleTime               0                       # Total Idle time Per DRAM Rank
system.mem_ctrls1.rank1.memoryStateTime::IDLE  63975808000                       # Time in different power states
system.mem_ctrls1.rank1.memoryStateTime::REF   2250820000                       # Time in different power states
system.mem_ctrls1.rank1.memoryStateTime::SREF            0                       # Time in different power states
system.mem_ctrls1.rank1.memoryStateTime::PRE_PDN            0                       # Time in different power states
system.mem_ctrls1.rank1.memoryStateTime::ACT   1180199501                       # Time in different power states
system.mem_ctrls1.rank1.memoryStateTime::ACT_PDN            0                       # Time in different power states
system.mem_ctrls1.rank0.actEnergy             4940880                       # Energy for activate commands per rank (pJ)
system.mem_ctrls1.rank0.preEnergy             2626140                       # Energy for precharge commands per rank (pJ)
system.mem_ctrls1.rank0.readEnergy            9810360                       # Energy for read commands per rank (pJ)
system.mem_ctrls1.rank0.writeEnergy                 0                       # Energy for write commands per rank (pJ)
system.mem_ctrls1.rank0.refreshEnergy    5320938480.000001                       # Energy for refresh commands per rank (pJ)
system.mem_ctrls1.rank0.actBackEnergy      1458125550                       # Energy for active background per rank (pJ)
system.mem_ctrls1.rank0.preBackEnergy     24656280480                       # Energy for precharge background per rank (pJ)
system.mem_ctrls1.rank0.actPowerDownEnergy            0                       # Energy for active power-down per rank (pJ)
system.mem_ctrls1.rank0.prePowerDownEnergy            0                       # Energy for precharge power-down per rank (pJ)
system.mem_ctrls1.rank0.selfRefreshEnergy            0                       # Energy for self refresh per rank (pJ)
system.mem_ctrls1.rank0.totalEnergy       31452721890                       # Total energy per rank (pJ)
system.mem_ctrls1.rank0.averagePower       466.610328                       # Core power per rank (mW)
system.mem_ctrls1.rank0.totalIdleTime               0                       # Total Idle time Per DRAM Rank
system.mem_ctrls1.rank0.memoryStateTime::IDLE  64087427501                       # Time in different power states
system.mem_ctrls1.rank0.memoryStateTime::REF   2250820000                       # Time in different power states
system.mem_ctrls1.rank0.memoryStateTime::SREF            0                       # Time in different power states
system.mem_ctrls1.rank0.memoryStateTime::PRE_PDN            0                       # Time in different power states
system.mem_ctrls1.rank0.memoryStateTime::ACT   1068580000                       # Time in different power states
system.mem_ctrls1.rank0.memoryStateTime::ACT_PDN            0                       # Time in different power states
system.mem_ctrls1.power_state.pwrStateResidencyTicks::UNDEFINED 99355541703001                       # Cumulative time (in ticks) in various power states
system.cpu_voltage_domain.voltage                   1                       # Voltage in Volts
system.iobus.trans_dist::ReadReq                  315                       # Transaction distribution
system.iobus.trans_dist::ReadResp                 315                       # Transaction distribution
system.iobus.trans_dist::WriteReq                 624                       # Transaction distribution
system.iobus.trans_dist::WriteResp                624                       # Transaction distribution
system.iobus.pkt_count_system.pc.south_bridge.io_apic.int_master::system.ruby.l1_cntrl1.sequencer.pio-slave-port          192                       # Packet count per connected master and slave (bytes)
system.iobus.pkt_count_system.pc.south_bridge.io_apic.int_master::total          192                       # Packet count per connected master and slave (bytes)
system.iobus.pkt_count_system.ruby.l1_cntrl0.sequencer.mem-master-port::system.pc.south_bridge.ide.pio          102                       # Packet count per connected master and slave (bytes)
system.iobus.pkt_count_system.ruby.l1_cntrl0.sequencer.mem-master-port::system.ruby.l1_cntrl0.sequencer.pio-slave-port          170                       # Packet count per connected master and slave (bytes)
system.iobus.pkt_count_system.ruby.l1_cntrl0.sequencer.mem-master-port::system.ruby.l1_cntrl1.sequencer.pio-slave-port            2                       # Packet count per connected master and slave (bytes)
system.iobus.pkt_count_system.ruby.l1_cntrl0.sequencer.mem-master-port::system.ruby.l1_cntrl2.sequencer.pio-slave-port            2                       # Packet count per connected master and slave (bytes)
system.iobus.pkt_count_system.ruby.l1_cntrl0.sequencer.mem-master-port::system.ruby.l1_cntrl3.sequencer.pio-slave-port            2                       # Packet count per connected master and slave (bytes)
system.iobus.pkt_count_system.ruby.l1_cntrl0.sequencer.mem-master-port::total          278                       # Packet count per connected master and slave (bytes)
system.iobus.pkt_count_system.ruby.l1_cntrl1.sequencer.mem-master-port::system.pc.south_bridge.ide.pio           36                       # Packet count per connected master and slave (bytes)
system.iobus.pkt_count_system.ruby.l1_cntrl1.sequencer.mem-master-port::system.pc.com_1.pio          748                       # Packet count per connected master and slave (bytes)
system.iobus.pkt_count_system.ruby.l1_cntrl1.sequencer.mem-master-port::system.ruby.l1_cntrl0.sequencer.pio-slave-port            6                       # Packet count per connected master and slave (bytes)
system.iobus.pkt_count_system.ruby.l1_cntrl1.sequencer.mem-master-port::system.ruby.l1_cntrl1.sequencer.pio-slave-port          206                       # Packet count per connected master and slave (bytes)
system.iobus.pkt_count_system.ruby.l1_cntrl1.sequencer.mem-master-port::system.ruby.l1_cntrl2.sequencer.pio-slave-port            4                       # Packet count per connected master and slave (bytes)
system.iobus.pkt_count_system.ruby.l1_cntrl1.sequencer.mem-master-port::system.ruby.l1_cntrl3.sequencer.pio-slave-port            6                       # Packet count per connected master and slave (bytes)
system.iobus.pkt_count_system.ruby.l1_cntrl1.sequencer.mem-master-port::total         1006                       # Packet count per connected master and slave (bytes)
system.iobus.pkt_count_system.ruby.l1_cntrl2.sequencer.mem-master-port::system.ruby.l1_cntrl0.sequencer.pio-slave-port            6                       # Packet count per connected master and slave (bytes)
system.iobus.pkt_count_system.ruby.l1_cntrl2.sequencer.mem-master-port::system.ruby.l1_cntrl1.sequencer.pio-slave-port            6                       # Packet count per connected master and slave (bytes)
system.iobus.pkt_count_system.ruby.l1_cntrl2.sequencer.mem-master-port::system.ruby.l1_cntrl2.sequencer.pio-slave-port          190                       # Packet count per connected master and slave (bytes)
system.iobus.pkt_count_system.ruby.l1_cntrl2.sequencer.mem-master-port::system.ruby.l1_cntrl3.sequencer.pio-slave-port           12                       # Packet count per connected master and slave (bytes)
system.iobus.pkt_count_system.ruby.l1_cntrl2.sequencer.mem-master-port::total          214                       # Packet count per connected master and slave (bytes)
system.iobus.pkt_count_system.ruby.l1_cntrl3.sequencer.mem-master-port::system.ruby.l1_cntrl0.sequencer.pio-slave-port            4                       # Packet count per connected master and slave (bytes)
system.iobus.pkt_count_system.ruby.l1_cntrl3.sequencer.mem-master-port::system.ruby.l1_cntrl1.sequencer.pio-slave-port            4                       # Packet count per connected master and slave (bytes)
system.iobus.pkt_count_system.ruby.l1_cntrl3.sequencer.mem-master-port::system.ruby.l1_cntrl2.sequencer.pio-slave-port            4                       # Packet count per connected master and slave (bytes)
system.iobus.pkt_count_system.ruby.l1_cntrl3.sequencer.mem-master-port::system.ruby.l1_cntrl3.sequencer.pio-slave-port          176                       # Packet count per connected master and slave (bytes)
system.iobus.pkt_count_system.ruby.l1_cntrl3.sequencer.mem-master-port::total          188                       # Packet count per connected master and slave (bytes)
system.iobus.pkt_count::total                    1878                       # Packet count per connected master and slave (bytes)
system.iobus.pkt_size_system.pc.south_bridge.io_apic.int_master::system.ruby.l1_cntrl1.sequencer.pio-slave-port          384                       # Cumulative packet size per connected master and slave (bytes)
system.iobus.pkt_size_system.pc.south_bridge.io_apic.int_master::total          384                       # Cumulative packet size per connected master and slave (bytes)
system.iobus.pkt_size_system.ruby.l1_cntrl0.sequencer.mem-master-port::system.pc.south_bridge.ide.pio           60                       # Cumulative packet size per connected master and slave (bytes)
system.iobus.pkt_size_system.ruby.l1_cntrl0.sequencer.mem-master-port::system.ruby.l1_cntrl0.sequencer.pio-slave-port          340                       # Cumulative packet size per connected master and slave (bytes)
system.iobus.pkt_size_system.ruby.l1_cntrl0.sequencer.mem-master-port::system.ruby.l1_cntrl1.sequencer.pio-slave-port            4                       # Cumulative packet size per connected master and slave (bytes)
system.iobus.pkt_size_system.ruby.l1_cntrl0.sequencer.mem-master-port::system.ruby.l1_cntrl2.sequencer.pio-slave-port            4                       # Cumulative packet size per connected master and slave (bytes)
system.iobus.pkt_size_system.ruby.l1_cntrl0.sequencer.mem-master-port::system.ruby.l1_cntrl3.sequencer.pio-slave-port            4                       # Cumulative packet size per connected master and slave (bytes)
system.iobus.pkt_size_system.ruby.l1_cntrl0.sequencer.mem-master-port::total          412                       # Cumulative packet size per connected master and slave (bytes)
system.iobus.pkt_size_system.ruby.l1_cntrl1.sequencer.mem-master-port::system.pc.south_bridge.ide.pio           18                       # Cumulative packet size per connected master and slave (bytes)
system.iobus.pkt_size_system.ruby.l1_cntrl1.sequencer.mem-master-port::system.pc.com_1.pio          374                       # Cumulative packet size per connected master and slave (bytes)
system.iobus.pkt_size_system.ruby.l1_cntrl1.sequencer.mem-master-port::system.ruby.l1_cntrl0.sequencer.pio-slave-port           12                       # Cumulative packet size per connected master and slave (bytes)
system.iobus.pkt_size_system.ruby.l1_cntrl1.sequencer.mem-master-port::system.ruby.l1_cntrl1.sequencer.pio-slave-port          412                       # Cumulative packet size per connected master and slave (bytes)
system.iobus.pkt_size_system.ruby.l1_cntrl1.sequencer.mem-master-port::system.ruby.l1_cntrl2.sequencer.pio-slave-port            8                       # Cumulative packet size per connected master and slave (bytes)
system.iobus.pkt_size_system.ruby.l1_cntrl1.sequencer.mem-master-port::system.ruby.l1_cntrl3.sequencer.pio-slave-port           12                       # Cumulative packet size per connected master and slave (bytes)
system.iobus.pkt_size_system.ruby.l1_cntrl1.sequencer.mem-master-port::total          836                       # Cumulative packet size per connected master and slave (bytes)
system.iobus.pkt_size_system.ruby.l1_cntrl2.sequencer.mem-master-port::system.ruby.l1_cntrl0.sequencer.pio-slave-port           12                       # Cumulative packet size per connected master and slave (bytes)
system.iobus.pkt_size_system.ruby.l1_cntrl2.sequencer.mem-master-port::system.ruby.l1_cntrl1.sequencer.pio-slave-port           12                       # Cumulative packet size per connected master and slave (bytes)
system.iobus.pkt_size_system.ruby.l1_cntrl2.sequencer.mem-master-port::system.ruby.l1_cntrl2.sequencer.pio-slave-port          380                       # Cumulative packet size per connected master and slave (bytes)
system.iobus.pkt_size_system.ruby.l1_cntrl2.sequencer.mem-master-port::system.ruby.l1_cntrl3.sequencer.pio-slave-port           24                       # Cumulative packet size per connected master and slave (bytes)
system.iobus.pkt_size_system.ruby.l1_cntrl2.sequencer.mem-master-port::total          428                       # Cumulative packet size per connected master and slave (bytes)
system.iobus.pkt_size_system.ruby.l1_cntrl3.sequencer.mem-master-port::system.ruby.l1_cntrl0.sequencer.pio-slave-port            8                       # Cumulative packet size per connected master and slave (bytes)
system.iobus.pkt_size_system.ruby.l1_cntrl3.sequencer.mem-master-port::system.ruby.l1_cntrl1.sequencer.pio-slave-port            8                       # Cumulative packet size per connected master and slave (bytes)
system.iobus.pkt_size_system.ruby.l1_cntrl3.sequencer.mem-master-port::system.ruby.l1_cntrl2.sequencer.pio-slave-port            8                       # Cumulative packet size per connected master and slave (bytes)
system.iobus.pkt_size_system.ruby.l1_cntrl3.sequencer.mem-master-port::system.ruby.l1_cntrl3.sequencer.pio-slave-port          352                       # Cumulative packet size per connected master and slave (bytes)
system.iobus.pkt_size_system.ruby.l1_cntrl3.sequencer.mem-master-port::total          376                       # Cumulative packet size per connected master and slave (bytes)
system.iobus.pkt_size::total                     2436                       # Cumulative packet size per connected master and slave (bytes)
system.iobus.reqLayer2.occupancy               114500                       # Layer occupancy (ticks)
system.iobus.reqLayer2.utilization                0.0                       # Layer utilization (%)
system.iobus.power_state.pwrStateResidencyTicks::UNDEFINED 99355541703001                       # Cumulative time (in ticks) in various power states
system.iobus.reqLayer19.occupancy              231422                       # Layer occupancy (ticks)
system.iobus.reqLayer19.utilization               0.0                       # Layer utilization (%)
system.iobus.reqLayer17.occupancy              225924                       # Layer occupancy (ticks)
system.iobus.reqLayer17.utilization               0.0                       # Layer utilization (%)
system.iobus.reqLayer12.occupancy              479000                       # Layer occupancy (ticks)
system.iobus.reqLayer12.utilization               0.0                       # Layer utilization (%)
system.iobus.reqLayer18.occupancy              447921                       # Layer occupancy (ticks)
system.iobus.reqLayer18.utilization               0.0                       # Layer utilization (%)
system.iobus.respLayer9.occupancy              141500                       # Layer occupancy (ticks)
system.iobus.respLayer9.utilization               0.0                       # Layer utilization (%)
system.iobus.respLayer5.occupancy              841500                       # Layer occupancy (ticks)
system.iobus.respLayer5.utilization               0.0                       # Layer utilization (%)
system.iobus.respLayer7.occupancy              161500                       # Layer occupancy (ticks)
system.iobus.respLayer7.utilization               0.0                       # Layer utilization (%)
system.iobus.respLayer0.occupancy              144497                       # Layer occupancy (ticks)
system.iobus.respLayer0.utilization               0.0                       # Layer utilization (%)
system.iobus.respLayer3.occupancy              196500                       # Layer occupancy (ticks)
system.iobus.respLayer3.utilization               0.0                       # Layer utilization (%)
system.iobus.reqLayer20.occupancy              234916                       # Layer occupancy (ticks)
system.iobus.reqLayer20.utilization               0.0                       # Layer utilization (%)

---------- End Simulation Statistics   ----------
