
---------- Begin Simulation Statistics ----------
final_tick                               101523533971001                       # Number of ticks from beginning of simulation (restored from checkpoints and never reset)
host_inst_rate                                 647825                       # Simulator instruction rate (inst/s)
host_mem_usage                                1868788                       # Number of bytes of host memory used
host_op_rate                                   764562                       # Simulator op (including micro ops) rate (op/s)
host_seconds                                 10972.77                       # Real time elapsed on the host
host_tick_rate                              148440756                       # Simulator tick rate (ticks/s)
sim_freq                                 1000000000000                       # Frequency of simulated ticks
sim_insts                                  7108432546                       # Number of instructions simulated
sim_ops                                    8389363164                       # Number of ops (including micro ops) simulated
sim_seconds                                  1.628807                       # Number of seconds simulated
sim_ticks                                1628806864501                       # Number of ticks simulated
system.cpu0.committedInsts                          0                       # Number of instructions committed
system.cpu0.dtb.rdAccesses                          0                       # TLB accesses on read requests
system.cpu0.dtb.rdMisses                            0                       # TLB misses on read requests
system.cpu0.dtb.wrAccesses                          0                       # TLB accesses on write requests
system.cpu0.dtb.wrMisses                            0                       # TLB misses on write requests
system.cpu0.itb.rdAccesses                          0                       # TLB accesses on read requests
system.cpu0.itb.rdMisses                            0                       # TLB misses on read requests
system.cpu0.itb.wrAccesses                          0                       # TLB accesses on write requests
system.cpu0.itb.wrMisses                            0                       # TLB misses on write requests
system.cpu0.kern.inst.arm                           0                       # number of arm instructions executed
system.cpu0.kern.inst.quiesce                       0                       # number of quiesce instructions executed
system.cpu0.numCoalescedMMIO                        0                       # number of coalesced memory mapped IO requests
system.cpu0.numCycles                               0                       # number of cpu cycles simulated
system.cpu0.numExitSignal                           0                       # exits due to signal delivery
system.cpu0.numHalt                                 0                       # number of VM exits due to wait for interrupt instructions
system.cpu0.numHypercalls                           0                       # number of hypercalls
system.cpu0.numIO                                   0                       # number of VM exits due to legacy IO
system.cpu0.numInterrupts                           0                       # number of interrupts delivered
system.cpu0.numMMIO                                 0                       # number of VM exits due to memory mapped IO
system.cpu0.numVMExits                              0                       # total number of KVM exits
system.cpu0.numVMHalfEntries                        0                       # number of KVM entries to finalize pending operations
system.cpu0.numWorkItemsCompleted                   0                       # number of work items this cpu completed
system.cpu0.numWorkItemsStarted                     0                       # number of work items this cpu started
system.cpu1.committedInsts                          0                       # Number of instructions committed
system.cpu1.dtb.rdAccesses                          0                       # TLB accesses on read requests
system.cpu1.dtb.rdMisses                            0                       # TLB misses on read requests
system.cpu1.dtb.wrAccesses                          0                       # TLB accesses on write requests
system.cpu1.dtb.wrMisses                            0                       # TLB misses on write requests
system.cpu1.itb.rdAccesses                          0                       # TLB accesses on read requests
system.cpu1.itb.rdMisses                            0                       # TLB misses on read requests
system.cpu1.itb.wrAccesses                          0                       # TLB accesses on write requests
system.cpu1.itb.wrMisses                            0                       # TLB misses on write requests
system.cpu1.kern.inst.arm                           0                       # number of arm instructions executed
system.cpu1.kern.inst.quiesce                       0                       # number of quiesce instructions executed
system.cpu1.numCoalescedMMIO                        0                       # number of coalesced memory mapped IO requests
system.cpu1.numCycles                               0                       # number of cpu cycles simulated
system.cpu1.numExitSignal                           0                       # exits due to signal delivery
system.cpu1.numHalt                                 0                       # number of VM exits due to wait for interrupt instructions
system.cpu1.numHypercalls                           0                       # number of hypercalls
system.cpu1.numIO                                   0                       # number of VM exits due to legacy IO
system.cpu1.numInterrupts                           0                       # number of interrupts delivered
system.cpu1.numMMIO                                 0                       # number of VM exits due to memory mapped IO
system.cpu1.numVMExits                              0                       # total number of KVM exits
system.cpu1.numVMHalfEntries                        0                       # number of KVM entries to finalize pending operations
system.cpu1.numWorkItemsCompleted                   0                       # number of work items this cpu completed
system.cpu1.numWorkItemsStarted                     0                       # number of work items this cpu started
system.cpu2.committedInsts                          0                       # Number of instructions committed
system.cpu2.dtb.rdAccesses                          0                       # TLB accesses on read requests
system.cpu2.dtb.rdMisses                            0                       # TLB misses on read requests
system.cpu2.dtb.wrAccesses                          0                       # TLB accesses on write requests
system.cpu2.dtb.wrMisses                            0                       # TLB misses on write requests
system.cpu2.itb.rdAccesses                          0                       # TLB accesses on read requests
system.cpu2.itb.rdMisses                            0                       # TLB misses on read requests
system.cpu2.itb.wrAccesses                          0                       # TLB accesses on write requests
system.cpu2.itb.wrMisses                            0                       # TLB misses on write requests
system.cpu2.kern.inst.arm                           0                       # number of arm instructions executed
system.cpu2.kern.inst.quiesce                       0                       # number of quiesce instructions executed
system.cpu2.numCoalescedMMIO                        0                       # number of coalesced memory mapped IO requests
system.cpu2.numCycles                               0                       # number of cpu cycles simulated
system.cpu2.numExitSignal                           0                       # exits due to signal delivery
system.cpu2.numHalt                                 0                       # number of VM exits due to wait for interrupt instructions
system.cpu2.numHypercalls                           0                       # number of hypercalls
system.cpu2.numIO                                   0                       # number of VM exits due to legacy IO
system.cpu2.numInterrupts                           0                       # number of interrupts delivered
system.cpu2.numMMIO                                 0                       # number of VM exits due to memory mapped IO
system.cpu2.numVMExits                              0                       # total number of KVM exits
system.cpu2.numVMHalfEntries                        0                       # number of KVM entries to finalize pending operations
system.cpu2.numWorkItemsCompleted                   0                       # number of work items this cpu completed
system.cpu2.numWorkItemsStarted                     0                       # number of work items this cpu started
system.cpu3.committedInsts                          0                       # Number of instructions committed
system.cpu3.dtb.rdAccesses                          0                       # TLB accesses on read requests
system.cpu3.dtb.rdMisses                            0                       # TLB misses on read requests
system.cpu3.dtb.wrAccesses                          0                       # TLB accesses on write requests
system.cpu3.dtb.wrMisses                            0                       # TLB misses on write requests
system.cpu3.itb.rdAccesses                          0                       # TLB accesses on read requests
system.cpu3.itb.rdMisses                            0                       # TLB misses on read requests
system.cpu3.itb.wrAccesses                          0                       # TLB accesses on write requests
system.cpu3.itb.wrMisses                            0                       # TLB misses on write requests
system.cpu3.kern.inst.arm                           0                       # number of arm instructions executed
system.cpu3.kern.inst.quiesce                       0                       # number of quiesce instructions executed
system.cpu3.numCoalescedMMIO                        0                       # number of coalesced memory mapped IO requests
system.cpu3.numCycles                               0                       # number of cpu cycles simulated
system.cpu3.numExitSignal                           0                       # exits due to signal delivery
system.cpu3.numHalt                                 0                       # number of VM exits due to wait for interrupt instructions
system.cpu3.numHypercalls                           0                       # number of hypercalls
system.cpu3.numIO                                   0                       # number of VM exits due to legacy IO
system.cpu3.numInterrupts                           0                       # number of interrupts delivered
system.cpu3.numMMIO                                 0                       # number of VM exits due to memory mapped IO
system.cpu3.numVMExits                              0                       # total number of KVM exits
system.cpu3.numVMHalfEntries                        0                       # number of KVM entries to finalize pending operations
system.cpu3.numWorkItemsCompleted                   0                       # number of work items this cpu completed
system.cpu3.numWorkItemsStarted                     0                       # number of work items this cpu started
system.pc.south_bridge.ide.disks.dma_read_bytes       258048                       # Number of bytes transfered via DMA reads (not PRD).
system.pc.south_bridge.ide.disks.dma_read_full_pages           63                       # Number of full page size DMA reads (not PRD).
system.pc.south_bridge.ide.disks.dma_read_txs           63                       # Number of DMA read transactions (not PRD).
system.pc.south_bridge.ide.disks.dma_write_bytes        53248                       # Number of bytes transfered via DMA writes.
system.pc.south_bridge.ide.disks.dma_write_full_pages           13                       # Number of full page size DMA writes.
system.pc.south_bridge.ide.disks.dma_write_txs           13                       # Number of DMA write transactions.
system.ruby.DMA_Controller.I.allocI_load |        4043    100.00%    100.00% |           0      0.00%    100.00%
system.ruby.DMA_Controller.I.allocI_load::total         4043                      
system.ruby.DMA_Controller.I.allocI_store |         832    100.00%    100.00% |           0      0.00%    100.00%
system.ruby.DMA_Controller.I.allocI_store::total          832                      
system.ruby.DMA_Controller.I.deallocfwdfrom_in |        3913    100.00%    100.00% |           0      0.00%    100.00%
system.ruby.DMA_Controller.I.deallocfwdfrom_in::total         3913                      
system.ruby.DMA_Controller.M.allocTBE    |         832    100.00%    100.00% |           0      0.00%    100.00%
system.ruby.DMA_Controller.M.allocTBE::total          832                      
system.ruby.DMA_Controller.M.externalstoreMrespfrom_in |         832    100.00%    100.00% |           0      0.00%    100.00%
system.ruby.DMA_Controller.M.externalstoreMrespfrom_in::total          832                      
system.ruby.DMA_Controller.M_evict.Stallmandatory_in |       45235    100.00%    100.00% |           0      0.00%    100.00%
system.ruby.DMA_Controller.M_evict.Stallmandatory_in::total        45235                      
system.ruby.DMA_Controller.S.SloadSEvent |          62    100.00%    100.00% |           0      0.00%    100.00%
system.ruby.DMA_Controller.S.SloadSEvent::total           62                      
system.ruby.DMA_Controller.S.allocTBE    |        3082    100.00%    100.00% |           0      0.00%    100.00%
system.ruby.DMA_Controller.S.allocTBE::total         3082                      
system.ruby.DMA_Controller.S.externalloadSrespfrom_in |        4043    100.00%    100.00% |           0      0.00%    100.00%
system.ruby.DMA_Controller.S.externalloadSrespfrom_in::total         4043                      
system.ruby.DMA_Controller.S_evict.Stallmandatory_in |        9115    100.00%    100.00% |           0      0.00%    100.00%
system.ruby.DMA_Controller.S_evict.Stallmandatory_in::total         9115                      
system.ruby.DMA_Controller.SloadSEvent   |          62    100.00%    100.00% |           0      0.00%    100.00%
system.ruby.DMA_Controller.SloadSEvent::total           62                      
system.ruby.DMA_Controller.Stallmandatory_in |       54350    100.00%    100.00% |           0      0.00%    100.00%
system.ruby.DMA_Controller.Stallmandatory_in::total        54350                      
system.ruby.DMA_Controller.allocI_load   |        4043    100.00%    100.00% |           0      0.00%    100.00%
system.ruby.DMA_Controller.allocI_load::total         4043                      
system.ruby.DMA_Controller.allocI_store  |         832    100.00%    100.00% |           0      0.00%    100.00%
system.ruby.DMA_Controller.allocI_store::total          832                      
system.ruby.DMA_Controller.allocTBE      |        3914    100.00%    100.00% |           0      0.00%    100.00%
system.ruby.DMA_Controller.allocTBE::total         3914                      
system.ruby.DMA_Controller.deallocfwdfrom_in |        3913    100.00%    100.00% |           0      0.00%    100.00%
system.ruby.DMA_Controller.deallocfwdfrom_in::total         3913                      
system.ruby.DMA_Controller.externalloadSrespfrom_in |        4043    100.00%    100.00% |           0      0.00%    100.00%
system.ruby.DMA_Controller.externalloadSrespfrom_in::total         4043                      
system.ruby.DMA_Controller.externalstoreMrespfrom_in |         832    100.00%    100.00% |           0      0.00%    100.00%
system.ruby.DMA_Controller.externalstoreMrespfrom_in::total          832                      
system.ruby.Directory_Controller.I.allocTBE |     6136129     25.79%     25.79% |     5975861     25.12%     50.91% |     5933753     24.94%     75.85% |     5744223     24.15%    100.00%
system.ruby.Directory_Controller.I.allocTBE::total     23789966                      
system.ruby.Directory_Controller.I.deallocTBE |     6135245     25.79%     25.79% |     5974981     25.12%     50.91% |     5932920     24.94%     75.85% |     5743350     24.15%    100.00%
system.ruby.Directory_Controller.I.deallocTBE::total     23786496                      
system.ruby.Directory_Controller.I_GetML1C1_0.Stallreqto_in |           0      0.00%      0.00% |           0      0.00%      0.00% |           8    100.00%    100.00% |           0      0.00%    100.00%
system.ruby.Directory_Controller.I_GetML1C1_0.Stallreqto_in::total            8                      
system.ruby.Directory_Controller.I_GetSL1C1_0.Stallreqto_in |        2785     15.41%     15.41% |       11894     65.81%     81.23% |        2373     13.13%     94.36% |        1020      5.64%    100.00%
system.ruby.Directory_Controller.I_GetSL1C1_0.Stallreqto_in::total        18072                      
system.ruby.Directory_Controller.M.allocTBE |     3221748     24.86%     24.86% |     3261421     25.17%     50.03% |     3215395     24.81%     74.85% |     3258998     25.15%    100.00%
system.ruby.Directory_Controller.M.allocTBE::total     12957562                      
system.ruby.Directory_Controller.M.deallocTBE |     3221912     24.86%     24.86% |     3261580     25.17%     50.03% |     3215549     24.81%     74.85% |     3259154     25.15%    100.00%
system.ruby.Directory_Controller.M.deallocTBE::total     12958195                      
system.ruby.Directory_Controller.M_GetS.Progress |       29708     20.28%     20.28% |       49340     33.68%     53.96% |       48474     33.09%     87.06% |       18959     12.94%    100.00%
system.ruby.Directory_Controller.M_GetS.Progress::total       146481                      
system.ruby.Directory_Controller.M_GetS.Stallreqto_in |        7719     31.82%     31.82% |        8993     37.07%     68.89% |        4508     18.58%     87.47% |        3040     12.53%    100.00%
system.ruby.Directory_Controller.M_GetS.Stallreqto_in::total        24260                      
system.ruby.Directory_Controller.M_GetS_WBL1C1_0.Stallreqto_in |       17435     19.00%     19.00% |       58658     63.93%     82.93% |        9019      9.83%     92.76% |        6645      7.24%    100.00%
system.ruby.Directory_Controller.M_GetS_WBL1C1_0.Stallreqto_in::total        91757                      
system.ruby.Directory_Controller.M_PutML1C1_0.Stallreqto_in |           2      8.33%      8.33% |          16     66.67%     75.00% |           6     25.00%    100.00% |           0      0.00%    100.00%
system.ruby.Directory_Controller.M_PutML1C1_0.Stallreqto_in::total           24                      
system.ruby.Directory_Controller.Progress |       29708     20.28%     20.28% |       49340     33.68%     53.96% |       48474     33.09%     87.06% |       18959     12.94%    100.00%
system.ruby.Directory_Controller.Progress::total       146481                      
system.ruby.Directory_Controller.S.allocTBE |     7650376     26.69%     26.69% |     7195028     25.10%     51.79% |     7182264     25.06%     76.85% |     6636445     23.15%    100.00%
system.ruby.Directory_Controller.S.allocTBE::total     28664113                      
system.ruby.Directory_Controller.S.deallocTBE |     7651096     26.69%     26.69% |     7195749     25.10%     51.79% |     7182943     25.06%     76.85% |     6637162     23.15%    100.00%
system.ruby.Directory_Controller.S.deallocTBE::total     28666950                      
system.ruby.Directory_Controller.S_GetML1C1_0.Stallreqto_in |          63      5.73%      5.73% |         663     60.33%     66.06% |         359     32.67%     98.73% |          14      1.27%    100.00%
system.ruby.Directory_Controller.S_GetML1C1_0.Stallreqto_in::total         1099                      
system.ruby.Directory_Controller.S_GetML1C1_1.Stallreqto_in |           6      4.65%      4.65% |         118     91.47%     96.12% |           4      3.10%     99.22% |           1      0.78%    100.00%
system.ruby.Directory_Controller.S_GetML1C1_1.Stallreqto_in::total          129                      
system.ruby.Directory_Controller.S_GetML1C1_2.Stallreqto_in |           1      1.79%      1.79% |           2      3.57%      5.36% |          50     89.29%     94.64% |           3      5.36%    100.00%
system.ruby.Directory_Controller.S_GetML1C1_2.Stallreqto_in::total           56                      
system.ruby.Directory_Controller.S_GetSL1C1_0.Stallreqto_in |       12826     29.67%     29.67% |       19185     44.37%     74.04% |        5687     13.15%     87.19% |        5537     12.81%    100.00%
system.ruby.Directory_Controller.S_GetSL1C1_0.Stallreqto_in::total        43235                      
system.ruby.Directory_Controller.Stallreqto_in |       40837     22.86%     22.86% |       99529     55.71%     78.57% |       22014     12.32%     90.90% |       16260      9.10%    100.00%
system.ruby.Directory_Controller.Stallreqto_in::total       178640                      
system.ruby.Directory_Controller.allocTBE |    17008253     26.00%     26.00% |    16432310     25.12%     51.12% |    16331412     24.97%     76.09% |    15639666     23.91%    100.00%
system.ruby.Directory_Controller.allocTBE::total     65411641                      
system.ruby.Directory_Controller.deallocTBE |    17008253     26.00%     26.00% |    16432310     25.12%     51.12% |    16331412     24.97%     76.09% |    15639666     23.91%    100.00%
system.ruby.Directory_Controller.deallocTBE::total     65411641                      
system.ruby.IFETCH.hit_latency_hist_seqr::bucket_size            1                      
system.ruby.IFETCH.hit_latency_hist_seqr::max_bucket            9                      
system.ruby.IFETCH.hit_latency_hist_seqr::samples   2922799922                      
system.ruby.IFETCH.hit_latency_hist_seqr |  2922799922    100.00%    100.00% |           0      0.00%    100.00% |           0      0.00%    100.00% |           0      0.00%    100.00% |           0      0.00%    100.00% |           0      0.00%    100.00% |           0      0.00%    100.00% |           0      0.00%    100.00% |           0      0.00%    100.00% |           0      0.00%    100.00%
system.ruby.IFETCH.hit_latency_hist_seqr::total   2922799922                      
system.ruby.IFETCH.latency_hist_seqr::bucket_size            1                      
system.ruby.IFETCH.latency_hist_seqr::max_bucket            9                      
system.ruby.IFETCH.latency_hist_seqr::samples   2932994419                      
system.ruby.IFETCH.latency_hist_seqr     |  2932994419    100.00%    100.00% |           0      0.00%    100.00% |           0      0.00%    100.00% |           0      0.00%    100.00% |           0      0.00%    100.00% |           0      0.00%    100.00% |           0      0.00%    100.00% |           0      0.00%    100.00% |           0      0.00%    100.00% |           0      0.00%    100.00%
system.ruby.IFETCH.latency_hist_seqr::total   2932994419                      
system.ruby.IFETCH.miss_latency_hist_seqr::bucket_size            1                      
system.ruby.IFETCH.miss_latency_hist_seqr::max_bucket            9                      
system.ruby.IFETCH.miss_latency_hist_seqr::samples     10194497                      
system.ruby.IFETCH.miss_latency_hist_seqr |    10194497    100.00%    100.00% |           0      0.00%    100.00% |           0      0.00%    100.00% |           0      0.00%    100.00% |           0      0.00%    100.00% |           0      0.00%    100.00% |           0      0.00%    100.00% |           0      0.00%    100.00% |           0      0.00%    100.00% |           0      0.00%    100.00%
system.ruby.IFETCH.miss_latency_hist_seqr::total     10194497                      
system.ruby.L1Cache_Controller.I.allocI_load |     6095539     26.61%     26.61% |     4736450     20.68%     47.29% |     4667756     20.38%     67.68% |     7403384     32.32%    100.00%
system.ruby.L1Cache_Controller.I.allocI_load::total     22903129                      
system.ruby.L1Cache_Controller.I.allocI_store |     1839540     26.76%     26.76% |     1732362     25.20%     51.95% |     1663534     24.20%     76.15% |     1639977     23.85%    100.00%
system.ruby.L1Cache_Controller.I.allocI_store::total      6875413                      
system.ruby.L1Cache_Controller.I.deallocfwdfrom_in |     7934077     26.65%     26.65% |     6467823     21.72%     48.37% |     6330289     21.26%     69.63% |     9042340     30.37%    100.00%
system.ruby.L1Cache_Controller.I.deallocfwdfrom_in::total     29774529                      
system.ruby.L1Cache_Controller.I_store.Progress |        7561     43.28%     43.28% |        4237     24.25%     67.53% |        2447     14.01%     81.54% |        3225     18.46%    100.00%
system.ruby.L1Cache_Controller.I_store.Progress::total        17470                      
system.ruby.L1Cache_Controller.I_store.Stallfwdfrom_in |         122     26.87%     26.87% |          96     21.15%     48.02% |         125     27.53%     75.55% |         111     24.45%    100.00%
system.ruby.L1Cache_Controller.I_store.Stallfwdfrom_in::total          454                      
system.ruby.L1Cache_Controller.I_store_GetM_Ack_AD.Progress |           1     14.29%     14.29% |           1     14.29%     28.57% |           2     28.57%     57.14% |           3     42.86%    100.00%
system.ruby.L1Cache_Controller.I_store_GetM_Ack_AD.Progress::total            7                      
system.ruby.L1Cache_Controller.M.MloadMEvent |   107969086     24.66%     24.66% |   113587898     25.95%     50.61% |   115468161     26.38%     76.99% |   100741883     23.01%    100.00%
system.ruby.L1Cache_Controller.M.MloadMEvent::total    437767028                      
system.ruby.L1Cache_Controller.M.MstoreMEvent |    86648984     25.56%     25.56% |    85166314     25.12%     50.68% |    85262802     25.15%     75.84% |    81912661     24.16%    100.00%
system.ruby.L1Cache_Controller.M.MstoreMEvent::total    338990761                      
system.ruby.L1Cache_Controller.M.allocTBE |     3314762     25.58%     25.58% |     3330758     25.71%     51.29% |     3266983     25.21%     76.51% |     3044068     23.49%    100.00%
system.ruby.L1Cache_Controller.M.allocTBE::total     12956571                      
system.ruby.L1Cache_Controller.M.externalstoreMrespfrom_in |     3314903     25.58%     25.58% |     3330882     25.71%     51.29% |     3267138     25.21%     76.51% |     3044281     23.49%    100.00%
system.ruby.L1Cache_Controller.M.externalstoreMrespfrom_in::total     12957204                      
system.ruby.L1Cache_Controller.M_evict.Stallmandatory_in |       11583     26.06%     26.06% |       10770     24.23%     50.29% |       12217     27.48%     77.77% |        9881     22.23%    100.00%
system.ruby.L1Cache_Controller.M_evict.Stallmandatory_in::total        44451                      
system.ruby.L1Cache_Controller.M_evict_x_I.Progress |           1     25.00%     25.00% |           1     25.00%     50.00% |           0      0.00%     50.00% |           2     50.00%    100.00%
system.ruby.L1Cache_Controller.M_evict_x_I.Progress::total            4                      
system.ruby.L1Cache_Controller.M_evict_x_I.Stallmandatory_in |           1     12.50%     12.50% |           3     37.50%     50.00% |           0      0.00%     50.00% |           4     50.00%    100.00%
system.ruby.L1Cache_Controller.M_evict_x_I.Stallmandatory_in::total            8                      
system.ruby.L1Cache_Controller.MloadMEvent |   107969086     24.66%     24.66% |   113587898     25.95%     50.61% |   115468161     26.38%     76.99% |   100741883     23.01%    100.00%
system.ruby.L1Cache_Controller.MloadMEvent::total    437767028                      
system.ruby.L1Cache_Controller.MstoreMEvent |    86648984     25.56%     25.56% |    85166314     25.12%     50.68% |    85262802     25.15%     75.84% |    81912661     24.16%    100.00%
system.ruby.L1Cache_Controller.MstoreMEvent::total    338990761                      
system.ruby.L1Cache_Controller.Progress  |     1524949     24.44%     24.44% |     1631916     26.15%     50.59% |     1639149     26.27%     76.86% |     1444096     23.14%    100.00%
system.ruby.L1Cache_Controller.Progress::total      6240110                      
system.ruby.L1Cache_Controller.S.SloadSEvent |   755831413     24.43%     24.43% |   768889101     24.85%     49.28% |   798817275     25.82%     75.10% |   770437637     24.90%    100.00%
system.ruby.L1Cache_Controller.S.SloadSEvent::total   3093975426                      
system.ruby.L1Cache_Controller.S.allocTBE |     6138648     26.64%     26.64% |     4770317     20.70%     47.34% |     4701792     20.40%     67.74% |     7435419     32.26%    100.00%
system.ruby.L1Cache_Controller.S.allocTBE::total     23046176                      
system.ruby.L1Cache_Controller.S.deallocTBE |       43970     30.03%     30.03% |       34732     23.72%     53.75% |       34882     23.82%     77.57% |       32843     22.43%    100.00%
system.ruby.L1Cache_Controller.S.deallocTBE::total       146427                      
system.ruby.L1Cache_Controller.S.externalloadSrespfrom_in |     6095539     26.61%     26.61% |     4736450     20.68%     47.29% |     4667756     20.38%     67.68% |     7403384     32.32%    100.00%
system.ruby.L1Cache_Controller.S.externalloadSrespfrom_in::total     22903129                      
system.ruby.L1Cache_Controller.S_evict.Progress |          11     20.37%     20.37% |          15     27.78%     48.15% |          16     29.63%     77.78% |          12     22.22%    100.00%
system.ruby.L1Cache_Controller.S_evict.Progress::total           54                      
system.ruby.L1Cache_Controller.S_evict.Stallmandatory_in |        5217     26.25%     26.25% |        4598     23.14%     49.39% |        4975     25.04%     74.43% |        5081     25.57%    100.00%
system.ruby.L1Cache_Controller.S_evict.Stallmandatory_in::total        19871                      
system.ruby.L1Cache_Controller.S_evict_x_I.Progress |          43     27.74%     27.74% |          39     25.16%     52.90% |          36     23.23%     76.13% |          37     23.87%    100.00%
system.ruby.L1Cache_Controller.S_evict_x_I.Progress::total          155                      
system.ruby.L1Cache_Controller.S_evict_x_I.Stallmandatory_in |          47     27.65%     27.65% |          41     24.12%     51.76% |          40     23.53%     75.29% |          42     24.71%    100.00%
system.ruby.L1Cache_Controller.S_evict_x_I.Stallmandatory_in::total          170                      
system.ruby.L1Cache_Controller.S_store.Progress |     1517110     24.38%     24.38% |     1627537     26.16%     50.54% |     1636584     26.30%     76.85% |     1440637     23.15%    100.00%
system.ruby.L1Cache_Controller.S_store.Progress::total      6221868                      
system.ruby.L1Cache_Controller.S_store.Stallfwdfrom_in |         941     45.20%     45.20% |         520     24.98%     70.17% |         287     13.78%     83.96% |         334     16.04%    100.00%
system.ruby.L1Cache_Controller.S_store.Stallfwdfrom_in::total         2082                      
system.ruby.L1Cache_Controller.S_store_GetM_Ack_AD.Progress |         222     40.22%     40.22% |          86     15.58%     55.80% |          64     11.59%     67.39% |         180     32.61%    100.00%
system.ruby.L1Cache_Controller.S_store_GetM_Ack_AD.Progress::total          552                      
system.ruby.L1Cache_Controller.S_store_GetM_Ack_AD.Stallfwdfrom_in |         240     74.07%     74.07% |          75     23.15%     97.22% |           5      1.54%     98.77% |           4      1.23%    100.00%
system.ruby.L1Cache_Controller.S_store_GetM_Ack_AD.Stallfwdfrom_in::total          324                      
system.ruby.L1Cache_Controller.SloadSEvent |   755831413     24.43%     24.43% |   768889101     24.85%     49.28% |   798817275     25.82%     75.10% |   770437637     24.90%    100.00%
system.ruby.L1Cache_Controller.SloadSEvent::total   3093975426                      
system.ruby.L1Cache_Controller.Stallfwdfrom_in |        1303     45.56%     45.56% |         691     24.16%     69.72% |         417     14.58%     84.30% |         449     15.70%    100.00%
system.ruby.L1Cache_Controller.Stallfwdfrom_in::total         2860                      
system.ruby.L1Cache_Controller.Stallmandatory_in |       16848     26.12%     26.12% |       15412     23.89%     50.02% |       17232     26.72%     76.73% |       15008     23.27%    100.00%
system.ruby.L1Cache_Controller.Stallmandatory_in::total        64500                      
system.ruby.L1Cache_Controller.allocI_load |     6095539     26.61%     26.61% |     4736450     20.68%     47.29% |     4667756     20.38%     67.68% |     7403384     32.32%    100.00%
system.ruby.L1Cache_Controller.allocI_load::total     22903129                      
system.ruby.L1Cache_Controller.allocI_store |     1839540     26.76%     26.76% |     1732362     25.20%     51.95% |     1663534     24.20%     76.15% |     1639977     23.85%    100.00%
system.ruby.L1Cache_Controller.allocI_store::total      6875413                      
system.ruby.L1Cache_Controller.allocTBE  |     9453410     26.26%     26.26% |     8101075     22.50%     48.76% |     7968775     22.13%     70.89% |    10479487     29.11%    100.00%
system.ruby.L1Cache_Controller.allocTBE::total     36002747                      
system.ruby.L1Cache_Controller.deallocTBE |       43970     30.03%     30.03% |       34732     23.72%     53.75% |       34882     23.82%     77.57% |       32843     22.43%    100.00%
system.ruby.L1Cache_Controller.deallocTBE::total       146427                      
system.ruby.L1Cache_Controller.deallocfwdfrom_in |     7934077     26.65%     26.65% |     6467823     21.72%     48.37% |     6330289     21.26%     69.63% |     9042340     30.37%    100.00%
system.ruby.L1Cache_Controller.deallocfwdfrom_in::total     29774529                      
system.ruby.L1Cache_Controller.externalloadSrespfrom_in |     6095539     26.61%     26.61% |     4736450     20.68%     47.29% |     4667756     20.38%     67.68% |     7403384     32.32%    100.00%
system.ruby.L1Cache_Controller.externalloadSrespfrom_in::total     22903129                      
system.ruby.L1Cache_Controller.externalstoreMrespfrom_in |     3314903     25.58%     25.58% |     3330882     25.71%     51.29% |     3267138     25.21%     76.51% |     3044281     23.49%    100.00%
system.ruby.L1Cache_Controller.externalstoreMrespfrom_in::total     12957204                      
system.ruby.LD.hit_latency_hist_seqr::bucket_size            1                      
system.ruby.LD.hit_latency_hist_seqr::max_bucket            9                      
system.ruby.LD.hit_latency_hist_seqr::samples    608942532                      
system.ruby.LD.hit_latency_hist_seqr     |   608942532    100.00%    100.00% |           0      0.00%    100.00% |           0      0.00%    100.00% |           0      0.00%    100.00% |           0      0.00%    100.00% |           0      0.00%    100.00% |           0      0.00%    100.00% |           0      0.00%    100.00% |           0      0.00%    100.00% |           0      0.00%    100.00%
system.ruby.LD.hit_latency_hist_seqr::total    608942532                      
system.ruby.LD.latency_hist_seqr::bucket_size            1                      
system.ruby.LD.latency_hist_seqr::max_bucket            9                      
system.ruby.LD.latency_hist_seqr::samples    621651164                      
system.ruby.LD.latency_hist_seqr         |   621651164    100.00%    100.00% |           0      0.00%    100.00% |           0      0.00%    100.00% |           0      0.00%    100.00% |           0      0.00%    100.00% |           0      0.00%    100.00% |           0      0.00%    100.00% |           0      0.00%    100.00% |           0      0.00%    100.00% |           0      0.00%    100.00%
system.ruby.LD.latency_hist_seqr::total     621651164                      
system.ruby.LD.miss_latency_hist_seqr::bucket_size            1                      
system.ruby.LD.miss_latency_hist_seqr::max_bucket            9                      
system.ruby.LD.miss_latency_hist_seqr::samples     12708632                      
system.ruby.LD.miss_latency_hist_seqr    |    12708632    100.00%    100.00% |           0      0.00%    100.00% |           0      0.00%    100.00% |           0      0.00%    100.00% |           0      0.00%    100.00% |           0      0.00%    100.00% |           0      0.00%    100.00% |           0      0.00%    100.00% |           0      0.00%    100.00% |           0      0.00%    100.00%
system.ruby.LD.miss_latency_hist_seqr::total     12708632                      
system.ruby.Locked_RMW_Read.hit_latency_hist_seqr::bucket_size            1                      
system.ruby.Locked_RMW_Read.hit_latency_hist_seqr::max_bucket            9                      
system.ruby.Locked_RMW_Read.hit_latency_hist_seqr::samples      1123590                      
system.ruby.Locked_RMW_Read.hit_latency_hist_seqr |     1123590    100.00%    100.00% |           0      0.00%    100.00% |           0      0.00%    100.00% |           0      0.00%    100.00% |           0      0.00%    100.00% |           0      0.00%    100.00% |           0      0.00%    100.00% |           0      0.00%    100.00% |           0      0.00%    100.00% |           0      0.00%    100.00%
system.ruby.Locked_RMW_Read.hit_latency_hist_seqr::total      1123590                      
system.ruby.Locked_RMW_Read.latency_hist_seqr::bucket_size            1                      
system.ruby.Locked_RMW_Read.latency_hist_seqr::max_bucket            9                      
system.ruby.Locked_RMW_Read.latency_hist_seqr::samples      1494405                      
system.ruby.Locked_RMW_Read.latency_hist_seqr |     1494405    100.00%    100.00% |           0      0.00%    100.00% |           0      0.00%    100.00% |           0      0.00%    100.00% |           0      0.00%    100.00% |           0      0.00%    100.00% |           0      0.00%    100.00% |           0      0.00%    100.00% |           0      0.00%    100.00% |           0      0.00%    100.00%
system.ruby.Locked_RMW_Read.latency_hist_seqr::total      1494405                      
system.ruby.Locked_RMW_Read.miss_latency_hist_seqr::bucket_size            1                      
system.ruby.Locked_RMW_Read.miss_latency_hist_seqr::max_bucket            9                      
system.ruby.Locked_RMW_Read.miss_latency_hist_seqr::samples       370815                      
system.ruby.Locked_RMW_Read.miss_latency_hist_seqr |      370815    100.00%    100.00% |           0      0.00%    100.00% |           0      0.00%    100.00% |           0      0.00%    100.00% |           0      0.00%    100.00% |           0      0.00%    100.00% |           0      0.00%    100.00% |           0      0.00%    100.00% |           0      0.00%    100.00% |           0      0.00%    100.00%
system.ruby.Locked_RMW_Read.miss_latency_hist_seqr::total       370815                      
system.ruby.Locked_RMW_Write.hit_latency_hist_seqr::bucket_size            1                      
system.ruby.Locked_RMW_Write.hit_latency_hist_seqr::max_bucket            9                      
system.ruby.Locked_RMW_Write.hit_latency_hist_seqr::samples      1494405                      
system.ruby.Locked_RMW_Write.hit_latency_hist_seqr |     1494405    100.00%    100.00% |           0      0.00%    100.00% |           0      0.00%    100.00% |           0      0.00%    100.00% |           0      0.00%    100.00% |           0      0.00%    100.00% |           0      0.00%    100.00% |           0      0.00%    100.00% |           0      0.00%    100.00% |           0      0.00%    100.00%
system.ruby.Locked_RMW_Write.hit_latency_hist_seqr::total      1494405                      
system.ruby.Locked_RMW_Write.latency_hist_seqr::bucket_size            1                      
system.ruby.Locked_RMW_Write.latency_hist_seqr::max_bucket            9                      
system.ruby.Locked_RMW_Write.latency_hist_seqr::samples      1494405                      
system.ruby.Locked_RMW_Write.latency_hist_seqr |     1494405    100.00%    100.00% |           0      0.00%    100.00% |           0      0.00%    100.00% |           0      0.00%    100.00% |           0      0.00%    100.00% |           0      0.00%    100.00% |           0      0.00%    100.00% |           0      0.00%    100.00% |           0      0.00%    100.00% |           0      0.00%    100.00%
system.ruby.Locked_RMW_Write.latency_hist_seqr::total      1494405                      
system.ruby.RMW_Read.hit_latency_hist_seqr::bucket_size            1                      
system.ruby.RMW_Read.hit_latency_hist_seqr::max_bucket            9                      
system.ruby.RMW_Read.hit_latency_hist_seqr::samples     16064911                      
system.ruby.RMW_Read.hit_latency_hist_seqr |    16064911    100.00%    100.00% |           0      0.00%    100.00% |           0      0.00%    100.00% |           0      0.00%    100.00% |           0      0.00%    100.00% |           0      0.00%    100.00% |           0      0.00%    100.00% |           0      0.00%    100.00% |           0      0.00%    100.00% |           0      0.00%    100.00%
system.ruby.RMW_Read.hit_latency_hist_seqr::total     16064911                      
system.ruby.RMW_Read.latency_hist_seqr::bucket_size            1                      
system.ruby.RMW_Read.latency_hist_seqr::max_bucket            9                      
system.ruby.RMW_Read.latency_hist_seqr::samples     16581547                      
system.ruby.RMW_Read.latency_hist_seqr   |    16581547    100.00%    100.00% |           0      0.00%    100.00% |           0      0.00%    100.00% |           0      0.00%    100.00% |           0      0.00%    100.00% |           0      0.00%    100.00% |           0      0.00%    100.00% |           0      0.00%    100.00% |           0      0.00%    100.00% |           0      0.00%    100.00%
system.ruby.RMW_Read.latency_hist_seqr::total     16581547                      
system.ruby.RMW_Read.miss_latency_hist_seqr::bucket_size            1                      
system.ruby.RMW_Read.miss_latency_hist_seqr::max_bucket            9                      
system.ruby.RMW_Read.miss_latency_hist_seqr::samples       516636                      
system.ruby.RMW_Read.miss_latency_hist_seqr |      516636    100.00%    100.00% |           0      0.00%    100.00% |           0      0.00%    100.00% |           0      0.00%    100.00% |           0      0.00%    100.00% |           0      0.00%    100.00% |           0      0.00%    100.00% |           0      0.00%    100.00% |           0      0.00%    100.00% |           0      0.00%    100.00%
system.ruby.RMW_Read.miss_latency_hist_seqr::total       516636                      
system.ruby.ST.hit_latency_hist_seqr::bucket_size            1                      
system.ruby.ST.hit_latency_hist_seqr::max_bucket            9                      
system.ruby.ST.hit_latency_hist_seqr::samples    320307855                      
system.ruby.ST.hit_latency_hist_seqr     |   320307855    100.00%    100.00% |           0      0.00%    100.00% |           0      0.00%    100.00% |           0      0.00%    100.00% |           0      0.00%    100.00% |           0      0.00%    100.00% |           0      0.00%    100.00% |           0      0.00%    100.00% |           0      0.00%    100.00% |           0      0.00%    100.00%
system.ruby.ST.hit_latency_hist_seqr::total    320307855                      
system.ruby.ST.latency_hist_seqr::bucket_size            1                      
system.ruby.ST.latency_hist_seqr::max_bucket            9                      
system.ruby.ST.latency_hist_seqr::samples    332377608                      
system.ruby.ST.latency_hist_seqr         |   332377608    100.00%    100.00% |           0      0.00%    100.00% |           0      0.00%    100.00% |           0      0.00%    100.00% |           0      0.00%    100.00% |           0      0.00%    100.00% |           0      0.00%    100.00% |           0      0.00%    100.00% |           0      0.00%    100.00% |           0      0.00%    100.00%
system.ruby.ST.latency_hist_seqr::total     332377608                      
system.ruby.ST.miss_latency_hist_seqr::bucket_size            1                      
system.ruby.ST.miss_latency_hist_seqr::max_bucket            9                      
system.ruby.ST.miss_latency_hist_seqr::samples     12069753                      
system.ruby.ST.miss_latency_hist_seqr    |    12069753    100.00%    100.00% |           0      0.00%    100.00% |           0      0.00%    100.00% |           0      0.00%    100.00% |           0      0.00%    100.00% |           0      0.00%    100.00% |           0      0.00%    100.00% |           0      0.00%    100.00% |           0      0.00%    100.00% |           0      0.00%    100.00%
system.ruby.ST.miss_latency_hist_seqr::total     12069753                      
system.ruby.dir_cntrl0.fwdFrom.avg_buf_msgs     0.014365                       # Average number of messages in buffer
system.ruby.dir_cntrl0.fwdFrom.avg_stall_time  2999.991484                       # Average number of cycles messages are stalled in this MB
system.ruby.dir_cntrl0.reqTo.avg_buf_msgs     0.005346                       # Average number of messages in buffer
system.ruby.dir_cntrl0.reqTo.avg_stall_time  5621.519641                       # Average number of cycles messages are stalled in this MB
system.ruby.dir_cntrl0.requestToMemory.avg_buf_msgs     0.003818                       # Average number of messages in buffer
system.ruby.dir_cntrl0.requestToMemory.avg_stall_time   499.999998                       # Average number of cycles messages are stalled in this MB
system.ruby.dir_cntrl0.respFrom.avg_buf_msgs     0.017030                       # Average number of messages in buffer
system.ruby.dir_cntrl0.respFrom.avg_stall_time  3000.783912                       # Average number of cycles messages are stalled in this MB
system.ruby.dir_cntrl0.respTo.avg_buf_msgs     0.000009                       # Average number of messages in buffer
system.ruby.dir_cntrl0.respTo.avg_stall_time 24160.774773                       # Average number of cycles messages are stalled in this MB
system.ruby.dir_cntrl0.responseFromMemory.avg_buf_msgs     0.003828                       # Average number of messages in buffer
system.ruby.dir_cntrl0.responseFromMemory.avg_stall_time   499.999972                       # Average number of cycles messages are stalled in this MB
system.ruby.dir_cntrl1.fwdFrom.avg_buf_msgs     0.013863                       # Average number of messages in buffer
system.ruby.dir_cntrl1.fwdFrom.avg_stall_time  2999.977162                       # Average number of cycles messages are stalled in this MB
system.ruby.dir_cntrl1.reqTo.avg_buf_msgs     0.005350                       # Average number of messages in buffer
system.ruby.dir_cntrl1.reqTo.avg_stall_time  5646.815351                       # Average number of cycles messages are stalled in this MB
system.ruby.dir_cntrl1.requestToMemory.avg_buf_msgs     0.003746                       # Average number of messages in buffer
system.ruby.dir_cntrl1.requestToMemory.avg_stall_time   499.999965                       # Average number of cycles messages are stalled in this MB
system.ruby.dir_cntrl1.respFrom.avg_buf_msgs     0.016522                       # Average number of messages in buffer
system.ruby.dir_cntrl1.respFrom.avg_stall_time  3000.654201                       # Average number of cycles messages are stalled in this MB
system.ruby.dir_cntrl1.respTo.avg_buf_msgs     0.000015                       # Average number of messages in buffer
system.ruby.dir_cntrl1.respTo.avg_stall_time 24559.391606                       # Average number of cycles messages are stalled in this MB
system.ruby.dir_cntrl1.responseFromMemory.avg_buf_msgs     0.003755                       # Average number of messages in buffer
system.ruby.dir_cntrl1.responseFromMemory.avg_stall_time   499.999940                       # Average number of cycles messages are stalled in this MB
system.ruby.dir_cntrl2.fwdFrom.avg_buf_msgs     0.013824                       # Average number of messages in buffer
system.ruby.dir_cntrl2.fwdFrom.avg_stall_time  2999.977704                       # Average number of cycles messages are stalled in this MB
system.ruby.dir_cntrl2.reqTo.avg_buf_msgs     0.005081                       # Average number of messages in buffer
system.ruby.dir_cntrl2.reqTo.avg_stall_time  5571.969597                       # Average number of cycles messages are stalled in this MB
system.ruby.dir_cntrl2.requestToMemory.avg_buf_msgs     0.003699                       # Average number of messages in buffer
system.ruby.dir_cntrl2.requestToMemory.avg_stall_time   499.999933                       # Average number of cycles messages are stalled in this MB
system.ruby.dir_cntrl2.respFrom.avg_buf_msgs     0.016369                       # Average number of messages in buffer
system.ruby.dir_cntrl2.respFrom.avg_stall_time  3000.825995                       # Average number of cycles messages are stalled in this MB
system.ruby.dir_cntrl2.respTo.avg_buf_msgs     0.000015                       # Average number of messages in buffer
system.ruby.dir_cntrl2.respTo.avg_stall_time 24650.083229                       # Average number of cycles messages are stalled in this MB
system.ruby.dir_cntrl2.responseFromMemory.avg_buf_msgs     0.003708                       # Average number of messages in buffer
system.ruby.dir_cntrl2.responseFromMemory.avg_stall_time   499.999907                       # Average number of cycles messages are stalled in this MB
system.ruby.dir_cntrl3.fwdFrom.avg_buf_msgs     0.013033                       # Average number of messages in buffer
system.ruby.dir_cntrl3.fwdFrom.avg_stall_time  2999.978444                       # Average number of cycles messages are stalled in this MB
system.ruby.dir_cntrl3.reqTo.avg_buf_msgs     0.004851                       # Average number of messages in buffer
system.ruby.dir_cntrl3.reqTo.avg_stall_time  5721.435069                       # Average number of cycles messages are stalled in this MB
system.ruby.dir_cntrl3.requestToMemory.avg_buf_msgs     0.003634                       # Average number of messages in buffer
system.ruby.dir_cntrl3.requestToMemory.avg_stall_time   499.999998                       # Average number of cycles messages are stalled in this MB
system.ruby.dir_cntrl3.respFrom.avg_buf_msgs     0.015831                       # Average number of messages in buffer
system.ruby.dir_cntrl3.respFrom.avg_stall_time  3000.808198                       # Average number of cycles messages are stalled in this MB
system.ruby.dir_cntrl3.respTo.avg_buf_msgs     0.000006                       # Average number of messages in buffer
system.ruby.dir_cntrl3.respTo.avg_stall_time 24851.675080                       # Average number of cycles messages are stalled in this MB
system.ruby.dir_cntrl3.responseFromMemory.avg_buf_msgs     0.003643                       # Average number of messages in buffer
system.ruby.dir_cntrl3.responseFromMemory.avg_stall_time   499.999972                       # Average number of cycles messages are stalled in this MB
system.ruby.dma_cntrl0.cache.demand_accesses            0                       # Number of cache demand accesses
system.ruby.dma_cntrl0.cache.demand_hits            0                       # Number of cache demand hits
system.ruby.dma_cntrl0.cache.demand_misses            0                       # Number of cache demand misses
system.ruby.dma_cntrl0.fully_busy_cycles        10960                       # cycles for which number of transistions == max transitions
system.ruby.dma_cntrl0.fwdFrom.avg_buf_msgs     0.000001                       # Average number of messages in buffer
system.ruby.dma_cntrl0.fwdFrom.avg_stall_time  6558.080194                       # Average number of cycles messages are stalled in this MB
system.ruby.dma_cntrl0.mandatoryQueue.avg_buf_msgs     0.000198                       # Average number of messages in buffer
system.ruby.dma_cntrl0.mandatoryQueue.avg_stall_time 13471.991356                       # Average number of cycles messages are stalled in this MB
system.ruby.dma_cntrl0.reqTo.avg_buf_msgs     0.000313                       # Average number of messages in buffer
system.ruby.dma_cntrl0.reqTo.avg_stall_time   783.058738                       # Average number of cycles messages are stalled in this MB
system.ruby.dma_cntrl0.respFrom.avg_buf_msgs     0.000001                       # Average number of messages in buffer
system.ruby.dma_cntrl0.respFrom.avg_stall_time 444258.738158                       # Average number of cycles messages are stalled in this MB
system.ruby.dma_cntrl0.respTo.avg_buf_msgs     0.000000                       # Average number of messages in buffer
system.ruby.dma_cntrl0.respTo.avg_stall_time   281.976204                       # Average number of cycles messages are stalled in this MB
system.ruby.hit_latency_hist_seqr::bucket_size            1                      
system.ruby.hit_latency_hist_seqr::max_bucket            9                      
system.ruby.hit_latency_hist_seqr::samples   3870733215                      
system.ruby.hit_latency_hist_seqr        |  3870733215    100.00%    100.00% |           0      0.00%    100.00% |           0      0.00%    100.00% |           0      0.00%    100.00% |           0      0.00%    100.00% |           0      0.00%    100.00% |           0      0.00%    100.00% |           0      0.00%    100.00% |           0      0.00%    100.00% |           0      0.00%    100.00%
system.ruby.hit_latency_hist_seqr::total   3870733215                      
system.ruby.io_controller.cache.demand_accesses            0                       # Number of cache demand accesses
system.ruby.io_controller.cache.demand_hits            0                       # Number of cache demand hits
system.ruby.io_controller.cache.demand_misses            0                       # Number of cache demand misses
system.ruby.l1_cntrl0.cache.demand_accesses            0                       # Number of cache demand accesses
system.ruby.l1_cntrl0.cache.demand_hits             0                       # Number of cache demand hits
system.ruby.l1_cntrl0.cache.demand_misses            0                       # Number of cache demand misses
system.ruby.l1_cntrl0.fully_busy_cycles            46                       # cycles for which number of transistions == max transitions
system.ruby.l1_cntrl0.fwdFrom.avg_buf_msgs    37.292374                       # Average number of messages in buffer
system.ruby.l1_cntrl0.fwdFrom.avg_stall_time  6462.096402                       # Average number of cycles messages are stalled in this MB
system.ruby.l1_cntrl0.mandatoryQueue.avg_buf_msgs     0.366094                       # Average number of messages in buffer
system.ruby.l1_cntrl0.mandatoryQueue.avg_stall_time  3829.729714                       # Average number of cycles messages are stalled in this MB
system.ruby.l1_cntrl0.reqTo.avg_buf_msgs     0.005306                       # Average number of messages in buffer
system.ruby.l1_cntrl0.reqTo.avg_stall_time   500.000116                       # Average number of cycles messages are stalled in this MB
system.ruby.l1_cntrl0.respFrom.avg_buf_msgs     0.002904                       # Average number of messages in buffer
system.ruby.l1_cntrl0.respFrom.avg_stall_time 16691.450266                       # Average number of cycles messages are stalled in this MB
system.ruby.l1_cntrl0.respTo.avg_buf_msgs     0.000059                       # Average number of messages in buffer
system.ruby.l1_cntrl0.respTo.avg_stall_time   733.258681                       # Average number of cycles messages are stalled in this MB
system.ruby.l1_cntrl1.cache.demand_accesses            0                       # Number of cache demand accesses
system.ruby.l1_cntrl1.cache.demand_hits             0                       # Number of cache demand hits
system.ruby.l1_cntrl1.cache.demand_misses            0                       # Number of cache demand misses
system.ruby.l1_cntrl1.fully_busy_cycles            35                       # cycles for which number of transistions == max transitions
system.ruby.l1_cntrl1.fwdFrom.avg_buf_msgs    45.480837                       # Average number of messages in buffer
system.ruby.l1_cntrl1.fwdFrom.avg_stall_time  6525.894217                       # Average number of cycles messages are stalled in this MB
system.ruby.l1_cntrl1.mandatoryQueue.avg_buf_msgs     0.361902                       # Average number of messages in buffer
system.ruby.l1_cntrl1.mandatoryQueue.avg_stall_time  3249.105089                       # Average number of cycles messages are stalled in this MB
system.ruby.l1_cntrl1.reqTo.avg_buf_msgs     0.004444                       # Average number of messages in buffer
system.ruby.l1_cntrl1.reqTo.avg_stall_time   499.970151                       # Average number of cycles messages are stalled in this MB
system.ruby.l1_cntrl1.respFrom.avg_buf_msgs     0.002487                       # Average number of messages in buffer
system.ruby.l1_cntrl1.respFrom.avg_stall_time 16865.733566                       # Average number of cycles messages are stalled in this MB
system.ruby.l1_cntrl1.respTo.avg_buf_msgs     0.000050                       # Average number of messages in buffer
system.ruby.l1_cntrl1.respTo.avg_stall_time   622.477345                       # Average number of cycles messages are stalled in this MB
system.ruby.l1_cntrl2.cache.demand_accesses            0                       # Number of cache demand accesses
system.ruby.l1_cntrl2.cache.demand_hits             0                       # Number of cache demand hits
system.ruby.l1_cntrl2.cache.demand_misses            0                       # Number of cache demand misses
system.ruby.l1_cntrl2.fully_busy_cycles            43                       # cycles for which number of transistions == max transitions
system.ruby.l1_cntrl2.fwdFrom.avg_buf_msgs    36.966418                       # Average number of messages in buffer
system.ruby.l1_cntrl2.fwdFrom.avg_stall_time  6511.743007                       # Average number of cycles messages are stalled in this MB
system.ruby.l1_cntrl2.mandatoryQueue.avg_buf_msgs     0.370300                       # Average number of messages in buffer
system.ruby.l1_cntrl2.mandatoryQueue.avg_stall_time  3190.924317                       # Average number of cycles messages are stalled in this MB
system.ruby.l1_cntrl2.reqTo.avg_buf_msgs     0.004361                       # Average number of messages in buffer
system.ruby.l1_cntrl2.reqTo.avg_stall_time   500.000032                       # Average number of cycles messages are stalled in this MB
system.ruby.l1_cntrl2.respFrom.avg_buf_msgs     0.002447                       # Average number of messages in buffer
system.ruby.l1_cntrl2.respFrom.avg_stall_time 16605.857192                       # Average number of cycles messages are stalled in this MB
system.ruby.l1_cntrl2.respTo.avg_buf_msgs     0.000064                       # Average number of messages in buffer
system.ruby.l1_cntrl2.respTo.avg_stall_time   612.817282                       # Average number of cycles messages are stalled in this MB
system.ruby.l1_cntrl3.cache.demand_accesses            0                       # Number of cache demand accesses
system.ruby.l1_cntrl3.cache.demand_hits             0                       # Number of cache demand hits
system.ruby.l1_cntrl3.cache.demand_misses            0                       # Number of cache demand misses
system.ruby.l1_cntrl3.fully_busy_cycles            26                       # cycles for which number of transistions == max transitions
system.ruby.l1_cntrl3.fwdFrom.avg_buf_msgs    37.946369                       # Average number of messages in buffer
system.ruby.l1_cntrl3.fwdFrom.avg_stall_time  6574.090455                       # Average number of cycles messages are stalled in this MB
system.ruby.l1_cntrl3.mandatoryQueue.avg_buf_msgs     0.373453                       # Average number of messages in buffer
system.ruby.l1_cntrl3.mandatoryQueue.avg_stall_time  3951.215123                       # Average number of cycles messages are stalled in this MB
system.ruby.l1_cntrl3.reqTo.avg_buf_msgs     0.005966                       # Average number of messages in buffer
system.ruby.l1_cntrl3.reqTo.avg_stall_time   500.000213                       # Average number of cycles messages are stalled in this MB
system.ruby.l1_cntrl3.respFrom.avg_buf_msgs     0.003219                       # Average number of messages in buffer
system.ruby.l1_cntrl3.respFrom.avg_stall_time 16710.544944                       # Average number of cycles messages are stalled in this MB
system.ruby.l1_cntrl3.respTo.avg_buf_msgs     0.000047                       # Average number of messages in buffer
system.ruby.l1_cntrl3.respTo.avg_stall_time   631.031256                       # Average number of cycles messages are stalled in this MB
system.ruby.latency_hist_seqr::bucket_size            1                      
system.ruby.latency_hist_seqr::max_bucket            9                      
system.ruby.latency_hist_seqr::samples     3906593548                      
system.ruby.latency_hist_seqr            |  3906593548    100.00%    100.00% |           0      0.00%    100.00% |           0      0.00%    100.00% |           0      0.00%    100.00% |           0      0.00%    100.00% |           0      0.00%    100.00% |           0      0.00%    100.00% |           0      0.00%    100.00% |           0      0.00%    100.00% |           0      0.00%    100.00%
system.ruby.latency_hist_seqr::total       3906593548                      
system.ruby.miss_latency_hist_seqr::bucket_size            1                      
system.ruby.miss_latency_hist_seqr::max_bucket            9                      
system.ruby.miss_latency_hist_seqr::samples     35860333                      
system.ruby.miss_latency_hist_seqr       |    35860333    100.00%    100.00% |           0      0.00%    100.00% |           0      0.00%    100.00% |           0      0.00%    100.00% |           0      0.00%    100.00% |           0      0.00%    100.00% |           0      0.00%    100.00% |           0      0.00%    100.00% |           0      0.00%    100.00% |           0      0.00%    100.00%
system.ruby.miss_latency_hist_seqr::total     35860333                      
system.ruby.network.average_flit_latency    17.001936                      
system.ruby.network.average_flit_network_latency    12.797832                      
system.ruby.network.average_flit_queueing_latency     4.204104                      
system.ruby.network.average_flit_vnet_latency |   15.582630                       |    5.010436                       |   10.487481                       |         nan                       |         nan                       |         nan                       |         nan                       |         nan                      
system.ruby.network.average_flit_vqueue_latency |    5.959056                       |    6.000004                       |    1.024106                       |         nan                       |         nan                       |         nan                       |         nan                       |         nan                      
system.ruby.network.average_hops             1.003409                      
system.ruby.network.average_packet_latency    16.092148                      
system.ruby.network.average_packet_network_latency    12.587480                      
system.ruby.network.average_packet_queueing_latency     3.504668                      
system.ruby.network.average_packet_vnet_latency |   25.513237                       |    5.010436                       |    8.906615                       |         nan                       |         nan                       |         nan                       |         nan                       |         nan                      
system.ruby.network.average_packet_vqueue_latency |    5.941752                       |    6.000004                       |    1.015478                       |         nan                       |         nan                       |         nan                       |         nan                       |         nan                      
system.ruby.network.avg_link_utilization     0.301020                      
system.ruby.network.avg_vc_load          |    0.124049     41.21%     41.21% |    0.014482      4.81%     46.02% |    0.013839      4.60%     50.62% |    0.013833      4.60%     55.21% |    0.020681      6.87%     62.08% |    0.002310      0.77%     62.85% |    0.002297      0.76%     63.61% |    0.002297      0.76%     64.38% |    0.079217     26.32%     90.69% |    0.010148      3.37%     94.06% |    0.008941      2.97%     97.03% |    0.008927      2.97%    100.00% |           0      0.00%    100.00% |           0      0.00%    100.00% |           0      0.00%    100.00% |           0      0.00%    100.00% |           0      0.00%    100.00% |           0      0.00%    100.00% |           0      0.00%    100.00% |           0      0.00%    100.00% |           0      0.00%    100.00% |           0      0.00%    100.00% |           0      0.00%    100.00% |           0      0.00%    100.00% |           0      0.00%    100.00% |           0      0.00%    100.00% |           0      0.00%    100.00% |           0      0.00%    100.00% |           0      0.00%    100.00% |           0      0.00%    100.00% |           0      0.00%    100.00% |           0      0.00%    100.00%
system.ruby.network.avg_vc_load::total       0.301020                      
system.ruby.network.ext_in_link_utilization    326498274                      
system.ruby.network.ext_out_link_utilization    326498274                      
system.ruby.network.flit_network_latency |  2808242583                       |   149939368                       |  1220288044                       |           0                       |           0                       |           0                       |           0                       |           0                      
system.ruby.network.flit_queueing_latency |  1073918519                       |   179552608                       |   119161511                       |           0                       |           0                       |           0                       |           0                       |           0                      
system.ruby.network.flits_injected       |   180216217     55.20%     55.20% |    29925416      9.17%     64.36% |   116356641     35.64%    100.00% |           0      0.00%    100.00% |           0      0.00%    100.00% |           0      0.00%    100.00% |           0      0.00%    100.00% |           0      0.00%    100.00%
system.ruby.network.flits_injected::total    326498274                      
system.ruby.network.flits_received       |   180216217     55.20%     55.20% |    29925416      9.17%     64.36% |   116356641     35.64%    100.00% |           0      0.00%    100.00% |           0      0.00%    100.00% |           0      0.00%    100.00% |           0      0.00%    100.00% |           0      0.00%    100.00%
system.ruby.network.flits_received::total    326498274                      
system.ruby.network.int_link_utilization    327611151                      
system.ruby.network.packet_network_latency |   922800024                       |   149939368                       |   582596322                       |           0                       |           0                       |           0                       |           0                       |           0                      
system.ruby.network.packet_queueing_latency |   214909955                       |   179552608                       |    66424079                       |           0                       |           0                       |           0                       |           0                       |           0                      
system.ruby.network.packets_injected     |    36169461     27.50%     27.50% |    29925416     22.76%     50.26% |    65411641     49.74%    100.00% |           0      0.00%    100.00% |           0      0.00%    100.00% |           0      0.00%    100.00% |           0      0.00%    100.00% |           0      0.00%    100.00%
system.ruby.network.packets_injected::total    131506518                      
system.ruby.network.packets_received     |    36169461     27.50%     27.50% |    29925416     22.76%     50.26% |    65411641     49.74%    100.00% |           0      0.00%    100.00% |           0      0.00%    100.00% |           0      0.00%    100.00% |           0      0.00%    100.00% |           0      0.00%    100.00%
system.ruby.network.packets_received::total    131506518                      
system.ruby.network.routers0.buffer_reads    166257755                      
system.ruby.network.routers0.buffer_writes    166257755                      
system.ruby.network.routers0.crossbar_activity    166257755                      
system.ruby.network.routers0.sw_input_arbiter_activity    166562177                      
system.ruby.network.routers0.sw_output_arbiter_activity    166257755                      
system.ruby.network.routers1.buffer_reads    161747712                      
system.ruby.network.routers1.buffer_writes    161747712                      
system.ruby.network.routers1.crossbar_activity    161747712                      
system.ruby.network.routers1.sw_input_arbiter_activity    162038519                      
system.ruby.network.routers1.sw_output_arbiter_activity    161747712                      
system.ruby.network.routers2.buffer_reads    157705924                      
system.ruby.network.routers2.buffer_writes    157705924                      
system.ruby.network.routers2.crossbar_activity    157705924                      
system.ruby.network.routers2.sw_input_arbiter_activity    157991254                      
system.ruby.network.routers2.sw_output_arbiter_activity    157705924                      
system.ruby.network.routers3.buffer_reads    168398034                      
system.ruby.network.routers3.buffer_writes    168398034                      
system.ruby.network.routers3.crossbar_activity    168398034                      
system.ruby.network.routers3.sw_input_arbiter_activity    168677300                      
system.ruby.network.routers3.sw_output_arbiter_activity    168398034                      
system.ruby.outstanding_req_hist_seqr::bucket_size            1                      
system.ruby.outstanding_req_hist_seqr::max_bucket            9                      
system.ruby.outstanding_req_hist_seqr::samples   3906593548                      
system.ruby.outstanding_req_hist_seqr::mean     1.000146                      
system.ruby.outstanding_req_hist_seqr::gmean     1.000101                      
system.ruby.outstanding_req_hist_seqr::stdev     0.012076                      
system.ruby.outstanding_req_hist_seqr    |           0      0.00%      0.00% |  3906023777     99.99%     99.99% |      569771      0.01%    100.00% |           0      0.00%    100.00% |           0      0.00%    100.00% |           0      0.00%    100.00% |           0      0.00%    100.00% |           0      0.00%    100.00% |           0      0.00%    100.00% |           0      0.00%    100.00%
system.ruby.outstanding_req_hist_seqr::total   3906593548                      
system.switch_cpus0.Branches                 73671769                       # Number of branches fetched
system.switch_cpus0.committedInsts          524669624                       # Number of instructions committed
system.switch_cpus0.committedOps            842295889                       # Number of ops (including micro ops) committed
system.switch_cpus0.dtb.rdAccesses          153083190                       # TLB accesses on read requests
system.switch_cpus0.dtb.rdMisses               610888                       # TLB misses on read requests
system.switch_cpus0.dtb.wrAccesses           86583162                       # TLB accesses on write requests
system.switch_cpus0.dtb.wrMisses               137153                       # TLB misses on write requests
system.switch_cpus0.idle_fraction            0.079779                       # Percentage of idle cycles
system.switch_cpus0.itb.rdAccesses                  0                       # TLB accesses on read requests
system.switch_cpus0.itb.rdMisses                    0                       # TLB misses on read requests
system.switch_cpus0.itb.wrAccesses          718827747                       # TLB accesses on write requests
system.switch_cpus0.itb.wrMisses                96996                       # TLB misses on write requests
system.switch_cpus0.kern.inst.arm                   0                       # number of arm instructions executed
system.switch_cpus0.kern.inst.quiesce               0                       # number of quiesce instructions executed
system.switch_cpus0.not_idle_fraction        0.920221                       # Percentage of non-idle cycles
system.switch_cpus0.numCycles              3256245012                       # number of cpu cycles simulated
system.switch_cpus0.numWorkItemsCompleted            0                       # number of work items this cpu completed
system.switch_cpus0.numWorkItemsStarted             0                       # number of work items this cpu started
system.switch_cpus0.num_busy_cycles      2996465442.701091                       # Number of busy cycles
system.switch_cpus0.num_cc_register_reads    412392243                       # number of times the CC registers were read
system.switch_cpus0.num_cc_register_writes    327754019                       # number of times the CC registers were written
system.switch_cpus0.num_conditional_control_insts     58889170                       # number of instructions that are conditional controls
system.switch_cpus0.num_fp_alu_accesses      10491623                       # Number of float alu accesses
system.switch_cpus0.num_fp_insts             10491623                       # number of float instructions
system.switch_cpus0.num_fp_register_reads      8406095                       # number of times the floating registers were read
system.switch_cpus0.num_fp_register_writes      2949943                       # number of times the floating registers were written
system.switch_cpus0.num_func_calls            9068046                       # number of times a function call or return occured
system.switch_cpus0.num_idle_cycles      259779569.298909                       # Number of idle cycles
system.switch_cpus0.num_int_alu_accesses    834502904                       # Number of integer alu accesses
system.switch_cpus0.num_int_insts           834502904                       # number of integer instructions
system.switch_cpus0.num_int_register_reads   1845392448                       # number of times the integer registers were read
system.switch_cpus0.num_int_register_writes    676575010                       # number of times the integer registers were written
system.switch_cpus0.num_load_insts          152322429                       # Number of load instructions
system.switch_cpus0.num_mem_refs            238783305                       # number of memory refs
system.switch_cpus0.num_store_insts          86460876                       # Number of store instructions
system.switch_cpus0.num_vec_alu_accesses            0                       # Number of vector alu accesses
system.switch_cpus0.num_vec_insts                   0                       # number of vector instructions
system.switch_cpus0.num_vec_register_reads            0                       # number of times the vector registers were read
system.switch_cpus0.num_vec_register_writes            0                       # number of times the vector registers were written
system.switch_cpus0.op_class::No_OpClass      5612981      0.67%      0.67% # Class of executed instruction
system.switch_cpus0.op_class::IntAlu        597577634     70.86%     71.53% # Class of executed instruction
system.switch_cpus0.op_class::IntMult          576154      0.07%     71.60% # Class of executed instruction
system.switch_cpus0.op_class::IntDiv           293469      0.03%     71.63% # Class of executed instruction
system.switch_cpus0.op_class::FloatAdd         141677      0.02%     71.65% # Class of executed instruction
system.switch_cpus0.op_class::FloatCmp              0      0.00%     71.65% # Class of executed instruction
system.switch_cpus0.op_class::FloatCvt           4608      0.00%     71.65% # Class of executed instruction
system.switch_cpus0.op_class::FloatMult             0      0.00%     71.65% # Class of executed instruction
system.switch_cpus0.op_class::FloatMultAcc            0      0.00%     71.65% # Class of executed instruction
system.switch_cpus0.op_class::FloatDiv              0      0.00%     71.65% # Class of executed instruction
system.switch_cpus0.op_class::FloatMisc             0      0.00%     71.65% # Class of executed instruction
system.switch_cpus0.op_class::FloatSqrt             0      0.00%     71.65% # Class of executed instruction
system.switch_cpus0.op_class::SimdAdd          278542      0.03%     71.68% # Class of executed instruction
system.switch_cpus0.op_class::SimdAddAcc            0      0.00%     71.68% # Class of executed instruction
system.switch_cpus0.op_class::SimdAlu            8242      0.00%     71.68% # Class of executed instruction
system.switch_cpus0.op_class::SimdCmp               0      0.00%     71.68% # Class of executed instruction
system.switch_cpus0.op_class::SimdCvt             296      0.00%     71.68% # Class of executed instruction
system.switch_cpus0.op_class::SimdMisc           4755      0.00%     71.68% # Class of executed instruction
system.switch_cpus0.op_class::SimdMult              0      0.00%     71.68% # Class of executed instruction
system.switch_cpus0.op_class::SimdMultAcc            0      0.00%     71.68% # Class of executed instruction
system.switch_cpus0.op_class::SimdShift           236      0.00%     71.68% # Class of executed instruction
system.switch_cpus0.op_class::SimdShiftAcc            0      0.00%     71.68% # Class of executed instruction
system.switch_cpus0.op_class::SimdDiv               0      0.00%     71.68% # Class of executed instruction
system.switch_cpus0.op_class::SimdSqrt              0      0.00%     71.68% # Class of executed instruction
system.switch_cpus0.op_class::SimdFloatAdd            0      0.00%     71.68% # Class of executed instruction
system.switch_cpus0.op_class::SimdFloatAlu            0      0.00%     71.68% # Class of executed instruction
system.switch_cpus0.op_class::SimdFloatCmp            0      0.00%     71.68% # Class of executed instruction
system.switch_cpus0.op_class::SimdFloatCvt            0      0.00%     71.68% # Class of executed instruction
system.switch_cpus0.op_class::SimdFloatDiv            0      0.00%     71.68% # Class of executed instruction
system.switch_cpus0.op_class::SimdFloatMisc            0      0.00%     71.68% # Class of executed instruction
[...]
system.mem_ctrls1.llc.tags.occ_percent::.ruby.dir_cntrl1     0.450735                       # Average percentage of cache occupancy
system.mem_ctrls1.llc.tags.occ_percent::total     0.450735                       # Average percentage of cache occupancy
system.mem_ctrls1.llc.tags.occ_task_id_blocks::1024       150195                       # Occupied blocks per task id
system.mem_ctrls1.llc.tags.age_task_id_blocks_1024::0            6                       # Occupied blocks per task id
system.mem_ctrls1.llc.tags.age_task_id_blocks_1024::1            1                       # Occupied blocks per task id
system.mem_ctrls1.llc.tags.age_task_id_blocks_1024::2            4                       # Occupied blocks per task id
system.mem_ctrls1.llc.tags.age_task_id_blocks_1024::4       150184                       # Occupied blocks per task id
system.mem_ctrls1.llc.tags.occ_task_id_percent::1024     0.572948                       # Percentage of cache occupancy per task id
system.mem_ctrls1.llc.tags.tag_accesses     195386051                       # Number of tag accesses
system.mem_ctrls1.llc.tags.data_accesses     12202241                       # Number of data accesses
system.mem_ctrls1.llc.tags.power_state.pwrStateResidencyTicks::UNDEFINED 101523533971001                       # Cumulative time (in ticks) in various power states
system.mem_ctrls1.rank1.actEnergy            87764880                       # Energy for activate commands per rank (pJ)
system.mem_ctrls1.rank1.preEnergy            46644345                       # Energy for precharge commands per rank (pJ)
system.mem_ctrls1.rank1.readEnergy          534578940                       # Energy for read commands per rank (pJ)
system.mem_ctrls1.rank1.writeEnergy                 0                       # Energy for write commands per rank (pJ)
system.mem_ctrls1.rank1.refreshEnergy    128576541600.000015                       # Energy for refresh commands per rank (pJ)
system.mem_ctrls1.rank1.actBackEnergy     51532496730                       # Energy for active background per rank (pJ)
system.mem_ctrls1.rank1.preBackEnergy    582065867040                       # Energy for precharge background per rank (pJ)
system.mem_ctrls1.rank1.actPowerDownEnergy            0                       # Energy for active power-down per rank (pJ)
system.mem_ctrls1.rank1.prePowerDownEnergy            0                       # Energy for precharge power-down per rank (pJ)
system.mem_ctrls1.rank1.selfRefreshEnergy            0                       # Energy for self refresh per rank (pJ)
system.mem_ctrls1.rank1.totalEnergy      762843893535                       # Total energy per rank (pJ)
system.mem_ctrls1.rank1.averagePower       468.345210                       # Core power per rank (mW)
system.mem_ctrls1.rank1.totalIdleTime               0                       # Total Idle time Per DRAM Rank
system.mem_ctrls1.rank1.memoryStateTime::IDLE 1512773318500                       # Time in different power states
system.mem_ctrls1.rank1.memoryStateTime::REF  54389400000                       # Time in different power states
system.mem_ctrls1.rank1.memoryStateTime::SREF            0                       # Time in different power states
system.mem_ctrls1.rank1.memoryStateTime::PRE_PDN            0                       # Time in different power states
system.mem_ctrls1.rank1.memoryStateTime::ACT  61644146001                       # Time in different power states
system.mem_ctrls1.rank1.memoryStateTime::ACT_PDN            0                       # Time in different power states
system.mem_ctrls1.rank0.actEnergy            91427700                       # Energy for activate commands per rank (pJ)
system.mem_ctrls1.rank0.preEnergy            48591180                       # Energy for precharge commands per rank (pJ)
system.mem_ctrls1.rank0.readEnergy          537813360                       # Energy for read commands per rank (pJ)
system.mem_ctrls1.rank0.writeEnergy                 0                       # Energy for write commands per rank (pJ)
system.mem_ctrls1.rank0.refreshEnergy    128576541600.000015                       # Energy for refresh commands per rank (pJ)
system.mem_ctrls1.rank0.actBackEnergy     51741495210                       # Energy for active background per rank (pJ)
system.mem_ctrls1.rank0.preBackEnergy    581890003200                       # Energy for precharge background per rank (pJ)
system.mem_ctrls1.rank0.actPowerDownEnergy            0                       # Energy for active power-down per rank (pJ)
system.mem_ctrls1.rank0.prePowerDownEnergy            0                       # Energy for precharge power-down per rank (pJ)
system.mem_ctrls1.rank0.selfRefreshEnergy            0                       # Energy for self refresh per rank (pJ)
system.mem_ctrls1.rank0.totalEnergy      762885872250                       # Total energy per rank (pJ)
system.mem_ctrls1.rank0.averagePower       468.370983                       # Core power per rank (mW)
system.mem_ctrls1.rank0.totalIdleTime               0                       # Total Idle time Per DRAM Rank
system.mem_ctrls1.rank0.memoryStateTime::IDLE 1512312073750                       # Time in different power states
system.mem_ctrls1.rank0.memoryStateTime::REF  54389400000                       # Time in different power states
system.mem_ctrls1.rank0.memoryStateTime::SREF            0                       # Time in different power states
system.mem_ctrls1.rank0.memoryStateTime::PRE_PDN            0                       # Time in different power states
system.mem_ctrls1.rank0.memoryStateTime::ACT  62105390751                       # Time in different power states
system.mem_ctrls1.rank0.memoryStateTime::ACT_PDN            0                       # Time in different power states
system.mem_ctrls1.power_state.pwrStateResidencyTicks::UNDEFINED 101523533971001                       # Cumulative time (in ticks) in various power states
system.cpu_voltage_domain.voltage                   1                       # Voltage in Volts
system.iobus.trans_dist::ReadReq                 7173                       # Transaction distribution
system.iobus.trans_dist::ReadResp                7173                       # Transaction distribution
system.iobus.trans_dist::WriteReq               54296                       # Transaction distribution
system.iobus.trans_dist::WriteResp              54296                       # Transaction distribution
system.iobus.pkt_count_system.pc.south_bridge.io_apic.int_master::system.ruby.l1_cntrl1.sequencer.pio-slave-port           54                       # Packet count per connected master and slave (bytes)
system.iobus.pkt_count_system.pc.south_bridge.io_apic.int_master::total           54                       # Packet count per connected master and slave (bytes)
system.iobus.pkt_count_system.ruby.l1_cntrl0.sequencer.mem-master-port::system.ruby.l1_cntrl0.sequencer.pio-slave-port        20838                       # Packet count per connected master and slave (bytes)
system.iobus.pkt_count_system.ruby.l1_cntrl0.sequencer.mem-master-port::system.ruby.l1_cntrl1.sequencer.pio-slave-port         3502                       # Packet count per connected master and slave (bytes)
system.iobus.pkt_count_system.ruby.l1_cntrl0.sequencer.mem-master-port::system.ruby.l1_cntrl2.sequencer.pio-slave-port         3514                       # Packet count per connected master and slave (bytes)
system.iobus.pkt_count_system.ruby.l1_cntrl0.sequencer.mem-master-port::system.ruby.l1_cntrl3.sequencer.pio-slave-port         3602                       # Packet count per connected master and slave (bytes)
system.iobus.pkt_count_system.ruby.l1_cntrl0.sequencer.mem-master-port::total        31456                       # Packet count per connected master and slave (bytes)
system.iobus.pkt_count_system.ruby.l1_cntrl1.sequencer.mem-master-port::system.pc.south_bridge.ide.pio           48                       # Packet count per connected master and slave (bytes)
system.iobus.pkt_count_system.ruby.l1_cntrl1.sequencer.mem-master-port::system.pc.com_1.pio          182                       # Packet count per connected master and slave (bytes)
system.iobus.pkt_count_system.ruby.l1_cntrl1.sequencer.mem-master-port::system.ruby.l1_cntrl0.sequencer.pio-slave-port         3506                       # Packet count per connected master and slave (bytes)
system.iobus.pkt_count_system.ruby.l1_cntrl1.sequencer.mem-master-port::system.ruby.l1_cntrl1.sequencer.pio-slave-port        20974                       # Packet count per connected master and slave (bytes)
system.iobus.pkt_count_system.ruby.l1_cntrl1.sequencer.mem-master-port::system.ruby.l1_cntrl2.sequencer.pio-slave-port         3426                       # Packet count per connected master and slave (bytes)
system.iobus.pkt_count_system.ruby.l1_cntrl1.sequencer.mem-master-port::system.ruby.l1_cntrl3.sequencer.pio-slave-port         3578                       # Packet count per connected master and slave (bytes)
system.iobus.pkt_count_system.ruby.l1_cntrl1.sequencer.mem-master-port::total        31714                       # Packet count per connected master and slave (bytes)
system.iobus.pkt_count_system.ruby.l1_cntrl2.sequencer.mem-master-port::system.pc.south_bridge.ide.pio          102                       # Packet count per connected master and slave (bytes)
system.iobus.pkt_count_system.ruby.l1_cntrl2.sequencer.mem-master-port::system.ruby.l1_cntrl0.sequencer.pio-slave-port         3144                       # Packet count per connected master and slave (bytes)
system.iobus.pkt_count_system.ruby.l1_cntrl2.sequencer.mem-master-port::system.ruby.l1_cntrl1.sequencer.pio-slave-port         3124                       # Packet count per connected master and slave (bytes)
system.iobus.pkt_count_system.ruby.l1_cntrl2.sequencer.mem-master-port::system.ruby.l1_cntrl2.sequencer.pio-slave-port        20300                       # Packet count per connected master and slave (bytes)
system.iobus.pkt_count_system.ruby.l1_cntrl2.sequencer.mem-master-port::system.ruby.l1_cntrl3.sequencer.pio-slave-port         3260                       # Packet count per connected master and slave (bytes)
system.iobus.pkt_count_system.ruby.l1_cntrl2.sequencer.mem-master-port::total        29930                       # Packet count per connected master and slave (bytes)
system.iobus.pkt_count_system.ruby.l1_cntrl3.sequencer.mem-master-port::system.pc.south_bridge.ide.pio           34                       # Packet count per connected master and slave (bytes)
system.iobus.pkt_count_system.ruby.l1_cntrl3.sequencer.mem-master-port::system.pc.com_1.pio            2                       # Packet count per connected master and slave (bytes)
system.iobus.pkt_count_system.ruby.l1_cntrl3.sequencer.mem-master-port::system.ruby.l1_cntrl0.sequencer.pio-slave-port         3140                       # Packet count per connected master and slave (bytes)
system.iobus.pkt_count_system.ruby.l1_cntrl3.sequencer.mem-master-port::system.ruby.l1_cntrl1.sequencer.pio-slave-port         3046                       # Packet count per connected master and slave (bytes)
system.iobus.pkt_count_system.ruby.l1_cntrl3.sequencer.mem-master-port::system.ruby.l1_cntrl2.sequencer.pio-slave-port         3042                       # Packet count per connected master and slave (bytes)
system.iobus.pkt_count_system.ruby.l1_cntrl3.sequencer.mem-master-port::system.ruby.l1_cntrl3.sequencer.pio-slave-port        20520                       # Packet count per connected master and slave (bytes)
system.iobus.pkt_count_system.ruby.l1_cntrl3.sequencer.mem-master-port::total        29784                       # Packet count per connected master and slave (bytes)
system.iobus.pkt_count::total                  122938                       # Packet count per connected master and slave (bytes)
system.iobus.pkt_size_system.pc.south_bridge.io_apic.int_master::system.ruby.l1_cntrl1.sequencer.pio-slave-port          108                       # Cumulative packet size per connected master and slave (bytes)
system.iobus.pkt_size_system.pc.south_bridge.io_apic.int_master::total          108                       # Cumulative packet size per connected master and slave (bytes)
system.iobus.pkt_size_system.ruby.l1_cntrl0.sequencer.mem-master-port::system.ruby.l1_cntrl0.sequencer.pio-slave-port        41676                       # Cumulative packet size per connected master and slave (bytes)
system.iobus.pkt_size_system.ruby.l1_cntrl0.sequencer.mem-master-port::system.ruby.l1_cntrl1.sequencer.pio-slave-port         7004                       # Cumulative packet size per connected master and slave (bytes)
system.iobus.pkt_size_system.ruby.l1_cntrl0.sequencer.mem-master-port::system.ruby.l1_cntrl2.sequencer.pio-slave-port         7028                       # Cumulative packet size per connected master and slave (bytes)
system.iobus.pkt_size_system.ruby.l1_cntrl0.sequencer.mem-master-port::system.ruby.l1_cntrl3.sequencer.pio-slave-port         7204                       # Cumulative packet size per connected master and slave (bytes)
system.iobus.pkt_size_system.ruby.l1_cntrl0.sequencer.mem-master-port::total        62912                       # Cumulative packet size per connected master and slave (bytes)
system.iobus.pkt_size_system.ruby.l1_cntrl1.sequencer.mem-master-port::system.pc.south_bridge.ide.pio           24                       # Cumulative packet size per connected master and slave (bytes)
system.iobus.pkt_size_system.ruby.l1_cntrl1.sequencer.mem-master-port::system.pc.com_1.pio           91                       # Cumulative packet size per connected master and slave (bytes)
system.iobus.pkt_size_system.ruby.l1_cntrl1.sequencer.mem-master-port::system.ruby.l1_cntrl0.sequencer.pio-slave-port         7012                       # Cumulative packet size per connected master and slave (bytes)
system.iobus.pkt_size_system.ruby.l1_cntrl1.sequencer.mem-master-port::system.ruby.l1_cntrl1.sequencer.pio-slave-port        41948                       # Cumulative packet size per connected master and slave (bytes)
system.iobus.pkt_size_system.ruby.l1_cntrl1.sequencer.mem-master-port::system.ruby.l1_cntrl2.sequencer.pio-slave-port         6852                       # Cumulative packet size per connected master and slave (bytes)
system.iobus.pkt_size_system.ruby.l1_cntrl1.sequencer.mem-master-port::system.ruby.l1_cntrl3.sequencer.pio-slave-port         7156                       # Cumulative packet size per connected master and slave (bytes)
system.iobus.pkt_size_system.ruby.l1_cntrl1.sequencer.mem-master-port::total        63083                       # Cumulative packet size per connected master and slave (bytes)
system.iobus.pkt_size_system.ruby.l1_cntrl2.sequencer.mem-master-port::system.pc.south_bridge.ide.pio           60                       # Cumulative packet size per connected master and slave (bytes)
system.iobus.pkt_size_system.ruby.l1_cntrl2.sequencer.mem-master-port::system.ruby.l1_cntrl0.sequencer.pio-slave-port         6288                       # Cumulative packet size per connected master and slave (bytes)
system.iobus.pkt_size_system.ruby.l1_cntrl2.sequencer.mem-master-port::system.ruby.l1_cntrl1.sequencer.pio-slave-port         6248                       # Cumulative packet size per connected master and slave (bytes)
system.iobus.pkt_size_system.ruby.l1_cntrl2.sequencer.mem-master-port::system.ruby.l1_cntrl2.sequencer.pio-slave-port        40600                       # Cumulative packet size per connected master and slave (bytes)
system.iobus.pkt_size_system.ruby.l1_cntrl2.sequencer.mem-master-port::system.ruby.l1_cntrl3.sequencer.pio-slave-port         6520                       # Cumulative packet size per connected master and slave (bytes)
system.iobus.pkt_size_system.ruby.l1_cntrl2.sequencer.mem-master-port::total        59716                       # Cumulative packet size per connected master and slave (bytes)
system.iobus.pkt_size_system.ruby.l1_cntrl3.sequencer.mem-master-port::system.pc.south_bridge.ide.pio           20                       # Cumulative packet size per connected master and slave (bytes)
system.iobus.pkt_size_system.ruby.l1_cntrl3.sequencer.mem-master-port::system.pc.com_1.pio            1                       # Cumulative packet size per connected master and slave (bytes)
system.iobus.pkt_size_system.ruby.l1_cntrl3.sequencer.mem-master-port::system.ruby.l1_cntrl0.sequencer.pio-slave-port         6280                       # Cumulative packet size per connected master and slave (bytes)
system.iobus.pkt_size_system.ruby.l1_cntrl3.sequencer.mem-master-port::system.ruby.l1_cntrl1.sequencer.pio-slave-port         6092                       # Cumulative packet size per connected master and slave (bytes)
system.iobus.pkt_size_system.ruby.l1_cntrl3.sequencer.mem-master-port::system.ruby.l1_cntrl2.sequencer.pio-slave-port         6084                       # Cumulative packet size per connected master and slave (bytes)
system.iobus.pkt_size_system.ruby.l1_cntrl3.sequencer.mem-master-port::system.ruby.l1_cntrl3.sequencer.pio-slave-port        41040                       # Cumulative packet size per connected master and slave (bytes)
system.iobus.pkt_size_system.ruby.l1_cntrl3.sequencer.mem-master-port::total        59517                       # Cumulative packet size per connected master and slave (bytes)
system.iobus.pkt_size::total                   245336                       # Cumulative packet size per connected master and slave (bytes)
system.iobus.reqLayer2.occupancy               154000                       # Layer occupancy (ticks)
system.iobus.reqLayer2.utilization                0.0                       # Layer utilization (%)
system.iobus.power_state.pwrStateResidencyTicks::UNDEFINED 101523533971001                       # Cumulative time (in ticks) in various power states
system.iobus.reqLayer19.occupancy            35420367                       # Layer occupancy (ticks)
system.iobus.reqLayer19.utilization               0.0                       # Layer utilization (%)
system.iobus.reqLayer17.occupancy            35270717                       # Layer occupancy (ticks)
system.iobus.reqLayer17.utilization               0.0                       # Layer utilization (%)
system.iobus.reqLayer12.occupancy              117000                       # Layer occupancy (ticks)
system.iobus.reqLayer12.utilization               0.0                       # Layer utilization (%)
system.iobus.reqLayer18.occupancy            35482674                       # Layer occupancy (ticks)
system.iobus.reqLayer18.utilization               0.0                       # Layer utilization (%)
system.iobus.respLayer9.occupancy            20957000                       # Layer occupancy (ticks)
system.iobus.respLayer9.utilization               0.0                       # Layer utilization (%)
system.iobus.respLayer5.occupancy            22307500                       # Layer occupancy (ticks)
system.iobus.respLayer5.utilization               0.0                       # Layer utilization (%)
system.iobus.respLayer7.occupancy            21024000                       # Layer occupancy (ticks)
system.iobus.respLayer7.utilization               0.0                       # Layer utilization (%)
system.iobus.respLayer0.occupancy               41496                       # Layer occupancy (ticks)
system.iobus.respLayer0.utilization               0.0                       # Layer utilization (%)
system.iobus.respLayer3.occupancy            21999499                       # Layer occupancy (ticks)
system.iobus.respLayer3.utilization               0.0                       # Layer utilization (%)
system.iobus.reqLayer20.occupancy            36316254                       # Layer occupancy (ticks)
system.iobus.reqLayer20.utilization               0.0                       # Layer utilization (%)

---------- End Simulation Statistics   ----------
