
---------- Begin Simulation Statistics ----------
final_tick                               105270758106001                       # Number of ticks from beginning of simulation (restored from checkpoints and never reset)
host_inst_rate                                7174325                       # Simulator instruction rate (inst/s)
host_mem_usage                                2056180                       # Number of bytes of host memory used
host_op_rate                                  7297257                       # Simulator op (including micro ops) rate (op/s)
host_seconds                                   694.08                       # Real time elapsed on the host
host_tick_rate                             7310356507                       # Simulator tick rate (ticks/s)
sim_freq                                 1000000000000                       # Frequency of simulated ticks
sim_insts                                  4979586887                       # Number of instructions simulated
sim_ops                                    5064913168                       # Number of ops (including micro ops) simulated
sim_seconds                                  5.074005                       # Number of seconds simulated
sim_ticks                                5074005225501                       # Number of ticks simulated
system.cpu0.committedInsts                          0                       # Number of instructions committed
system.cpu0.dtb.rdAccesses                          0                       # TLB accesses on read requests
system.cpu0.dtb.rdMisses                            0                       # TLB misses on read requests
system.cpu0.dtb.wrAccesses                          0                       # TLB accesses on write requests
system.cpu0.dtb.wrMisses                            0                       # TLB misses on write requests
system.cpu0.itb.rdAccesses                          0                       # TLB accesses on read requests
system.cpu0.itb.rdMisses                            0                       # TLB misses on read requests
system.cpu0.itb.wrAccesses                          0                       # TLB accesses on write requests
system.cpu0.itb.wrMisses                            0                       # TLB misses on write requests
system.cpu0.kern.inst.arm                           0                       # number of arm instructions executed
system.cpu0.kern.inst.quiesce                       0                       # number of quiesce instructions executed
system.cpu0.numCoalescedMMIO                        0                       # number of coalesced memory mapped IO requests
system.cpu0.numCycles                               0                       # number of cpu cycles simulated
system.cpu0.numExitSignal                           0                       # exits due to signal delivery
system.cpu0.numHalt                                 0                       # number of VM exits due to wait for interrupt instructions
system.cpu0.numHypercalls                           0                       # number of hypercalls
system.cpu0.numIO                                   0                       # number of VM exits due to legacy IO
system.cpu0.numInterrupts                           0                       # number of interrupts delivered
system.cpu0.numMMIO                                 0                       # number of VM exits due to memory mapped IO
system.cpu0.numVMExits                              0                       # total number of KVM exits
system.cpu0.numVMHalfEntries                        0                       # number of KVM entries to finalize pending operations
system.cpu0.numWorkItemsCompleted                   0                       # number of work items this cpu completed
system.cpu0.numWorkItemsStarted                     0                       # number of work items this cpu started
system.cpu1.committedInsts                          0                       # Number of instructions committed
system.cpu1.dtb.rdAccesses                          0                       # TLB accesses on read requests
system.cpu1.dtb.rdMisses                            0                       # TLB misses on read requests
system.cpu1.dtb.wrAccesses                          0                       # TLB accesses on write requests
system.cpu1.dtb.wrMisses                            0                       # TLB misses on write requests
system.cpu1.itb.rdAccesses                          0                       # TLB accesses on read requests
system.cpu1.itb.rdMisses                            0                       # TLB misses on read requests
system.cpu1.itb.wrAccesses                          0                       # TLB accesses on write requests
system.cpu1.itb.wrMisses                            0                       # TLB misses on write requests
system.cpu1.kern.inst.arm                           0                       # number of arm instructions executed
system.cpu1.kern.inst.quiesce                       0                       # number of quiesce instructions executed
system.cpu1.numCoalescedMMIO                        0                       # number of coalesced memory mapped IO requests
system.cpu1.numCycles                               0                       # number of cpu cycles simulated
system.cpu1.numExitSignal                           0                       # exits due to signal delivery
system.cpu1.numHalt                                 0                       # number of VM exits due to wait for interrupt instructions
system.cpu1.numHypercalls                           0                       # number of hypercalls
system.cpu1.numIO                                   0                       # number of VM exits due to legacy IO
system.cpu1.numInterrupts                           0                       # number of interrupts delivered
system.cpu1.numMMIO                                 0                       # number of VM exits due to memory mapped IO
system.cpu1.numVMExits                              0                       # total number of KVM exits
system.cpu1.numVMHalfEntries                        0                       # number of KVM entries to finalize pending operations
system.cpu1.numWorkItemsCompleted                   0                       # number of work items this cpu completed
system.cpu1.numWorkItemsStarted                     0                       # number of work items this cpu started
system.cpu2.committedInsts                          0                       # Number of instructions committed
system.cpu2.dtb.rdAccesses                          0                       # TLB accesses on read requests
system.cpu2.dtb.rdMisses                            0                       # TLB misses on read requests
system.cpu2.dtb.wrAccesses                          0                       # TLB accesses on write requests
system.cpu2.dtb.wrMisses                            0                       # TLB misses on write requests
system.cpu2.itb.rdAccesses                          0                       # TLB accesses on read requests
system.cpu2.itb.rdMisses                            0                       # TLB misses on read requests
system.cpu2.itb.wrAccesses                          0                       # TLB accesses on write requests
system.cpu2.itb.wrMisses                            0                       # TLB misses on write requests
system.cpu2.kern.inst.arm                           0                       # number of arm instructions executed
system.cpu2.kern.inst.quiesce                       0                       # number of quiesce instructions executed
system.cpu2.numCoalescedMMIO                        0                       # number of coalesced memory mapped IO requests
system.cpu2.numCycles                               0                       # number of cpu cycles simulated
system.cpu2.numExitSignal                           0                       # exits due to signal delivery
system.cpu2.numHalt                                 0                       # number of VM exits due to wait for interrupt instructions
system.cpu2.numHypercalls                           0                       # number of hypercalls
system.cpu2.numIO                                   0                       # number of VM exits due to legacy IO
system.cpu2.numInterrupts                           0                       # number of interrupts delivered
system.cpu2.numMMIO                                 0                       # number of VM exits due to memory mapped IO
system.cpu2.numVMExits                              0                       # total number of KVM exits
system.cpu2.numVMHalfEntries                        0                       # number of KVM entries to finalize pending operations
system.cpu2.numWorkItemsCompleted                   0                       # number of work items this cpu completed
system.cpu2.numWorkItemsStarted                     0                       # number of work items this cpu started
system.cpu3.committedInsts                          0                       # Number of instructions committed
system.cpu3.dtb.rdAccesses                          0                       # TLB accesses on read requests
system.cpu3.dtb.rdMisses                            0                       # TLB misses on read requests
system.cpu3.dtb.wrAccesses                          0                       # TLB accesses on write requests
system.cpu3.dtb.wrMisses                            0                       # TLB misses on write requests
system.cpu3.itb.rdAccesses                          0                       # TLB accesses on read requests
system.cpu3.itb.rdMisses                            0                       # TLB misses on read requests
system.cpu3.itb.wrAccesses                          0                       # TLB accesses on write requests
system.cpu3.itb.wrMisses                            0                       # TLB misses on write requests
system.cpu3.kern.inst.arm                           0                       # number of arm instructions executed
system.cpu3.kern.inst.quiesce                       0                       # number of quiesce instructions executed
system.cpu3.numCoalescedMMIO                        0                       # number of coalesced memory mapped IO requests
system.cpu3.numCycles                               0                       # number of cpu cycles simulated
system.cpu3.numExitSignal                           0                       # exits due to signal delivery
system.cpu3.numHalt                                 0                       # number of VM exits due to wait for interrupt instructions
system.cpu3.numHypercalls                           0                       # number of hypercalls
system.cpu3.numIO                                   0                       # number of VM exits due to legacy IO
system.cpu3.numInterrupts                           0                       # number of interrupts delivered
system.cpu3.numMMIO                                 0                       # number of VM exits due to memory mapped IO
system.cpu3.numVMExits                              0                       # total number of KVM exits
system.cpu3.numVMHalfEntries                        0                       # number of KVM entries to finalize pending operations
system.cpu3.numWorkItemsCompleted                   0                       # number of work items this cpu completed
system.cpu3.numWorkItemsStarted                     0                       # number of work items this cpu started
system.pc.south_bridge.ide.disks.dma_read_bytes       249856                       # Number of bytes transfered via DMA reads (not PRD).
system.pc.south_bridge.ide.disks.dma_read_full_pages           61                       # Number of full page size DMA reads (not PRD).
system.pc.south_bridge.ide.disks.dma_read_txs           61                       # Number of DMA read transactions (not PRD).
system.pc.south_bridge.ide.disks.dma_write_bytes       110592                       # Number of bytes transfered via DMA writes.
system.pc.south_bridge.ide.disks.dma_write_full_pages           27                       # Number of full page size DMA writes.
system.pc.south_bridge.ide.disks.dma_write_txs           27                       # Number of DMA write transactions.
system.ruby.DMA_Controller.I.allocI_load |        3919    100.00%    100.00% |           0      0.00%    100.00%
system.ruby.DMA_Controller.I.allocI_load::total         3919                      
system.ruby.DMA_Controller.I.allocI_store |        1728    100.00%    100.00% |           0      0.00%    100.00%
system.ruby.DMA_Controller.I.allocI_store::total         1728                      
system.ruby.DMA_Controller.I.deallocfwdfrom_in |        4623    100.00%    100.00% |           0      0.00%    100.00%
system.ruby.DMA_Controller.I.deallocfwdfrom_in::total         4623                      
system.ruby.DMA_Controller.I_store.Progress |           1    100.00%    100.00% |           0      0.00%    100.00%
system.ruby.DMA_Controller.I_store.Progress::total            1                      
system.ruby.DMA_Controller.M.allocTBE    |        1728    100.00%    100.00% |           0      0.00%    100.00%
system.ruby.DMA_Controller.M.allocTBE::total         1728                      
system.ruby.DMA_Controller.M.externalstoreMrespfrom_in |        1728    100.00%    100.00% |           0      0.00%    100.00%
system.ruby.DMA_Controller.M.externalstoreMrespfrom_in::total         1728                      
system.ruby.DMA_Controller.M_evict.Stallmandatory_in |       75409    100.00%    100.00% |           0      0.00%    100.00%
system.ruby.DMA_Controller.M_evict.Stallmandatory_in::total        75409                      
system.ruby.DMA_Controller.Progress      |           1    100.00%    100.00% |           0      0.00%    100.00%
system.ruby.DMA_Controller.Progress::total            1                      
system.ruby.DMA_Controller.S.SloadSEvent |          59    100.00%    100.00% |           0      0.00%    100.00%
system.ruby.DMA_Controller.S.SloadSEvent::total           59                      
system.ruby.DMA_Controller.S.allocTBE    |        3210    100.00%    100.00% |           0      0.00%    100.00%
system.ruby.DMA_Controller.S.allocTBE::total         3210                      
system.ruby.DMA_Controller.S.deallocTBE  |         312    100.00%    100.00% |           0      0.00%    100.00%
system.ruby.DMA_Controller.S.deallocTBE::total          312                      
system.ruby.DMA_Controller.S.externalloadSrespfrom_in |        3919    100.00%    100.00% |           0      0.00%    100.00%
system.ruby.DMA_Controller.S.externalloadSrespfrom_in::total         3919                      
system.ruby.DMA_Controller.S_evict.Stallmandatory_in |       10631    100.00%    100.00% |           0      0.00%    100.00%
system.ruby.DMA_Controller.S_evict.Stallmandatory_in::total        10631                      
system.ruby.DMA_Controller.SloadSEvent   |          59    100.00%    100.00% |           0      0.00%    100.00%
system.ruby.DMA_Controller.SloadSEvent::total           59                      
system.ruby.DMA_Controller.Stallmandatory_in |       86040    100.00%    100.00% |           0      0.00%    100.00%
system.ruby.DMA_Controller.Stallmandatory_in::total        86040                      
system.ruby.DMA_Controller.allocI_load   |        3919    100.00%    100.00% |           0      0.00%    100.00%
system.ruby.DMA_Controller.allocI_load::total         3919                      
system.ruby.DMA_Controller.allocI_store  |        1728    100.00%    100.00% |           0      0.00%    100.00%
system.ruby.DMA_Controller.allocI_store::total         1728                      
system.ruby.DMA_Controller.allocTBE      |        4938    100.00%    100.00% |           0      0.00%    100.00%
system.ruby.DMA_Controller.allocTBE::total         4938                      
system.ruby.DMA_Controller.deallocTBE    |         312    100.00%    100.00% |           0      0.00%    100.00%
system.ruby.DMA_Controller.deallocTBE::total          312                      
system.ruby.DMA_Controller.deallocfwdfrom_in |        4623    100.00%    100.00% |           0      0.00%    100.00%
system.ruby.DMA_Controller.deallocfwdfrom_in::total         4623                      
system.ruby.DMA_Controller.externalloadSrespfrom_in |        3919    100.00%    100.00% |           0      0.00%    100.00%
system.ruby.DMA_Controller.externalloadSrespfrom_in::total         3919                      
system.ruby.DMA_Controller.externalstoreMrespfrom_in |        1728    100.00%    100.00% |           0      0.00%    100.00%
system.ruby.DMA_Controller.externalstoreMrespfrom_in::total         1728                      
system.ruby.Directory_Controller.I.allocTBE |      274796     30.14%     30.14% |      260846     28.61%     58.76% |      183391     20.12%     78.88% |      192556     21.12%    100.00%
system.ruby.Directory_Controller.I.allocTBE::total       911589                      
system.ruby.Directory_Controller.I.deallocTBE |      273750     30.17%     30.17% |      259793     28.63%     58.80% |      182350     20.10%     78.89% |      191534     21.11%    100.00%
system.ruby.Directory_Controller.I.deallocTBE::total       907427                      
system.ruby.Directory_Controller.I_GetML1C1_0.Stallreqto_in |           4      5.63%      5.63% |          22     30.99%     36.62% |          25     35.21%     71.83% |          20     28.17%    100.00%
system.ruby.Directory_Controller.I_GetML1C1_0.Stallreqto_in::total           71                      
system.ruby.Directory_Controller.I_GetSL1C1_0.Stallreqto_in |          34     22.67%     22.67% |          60     40.00%     62.67% |          14      9.33%     72.00% |          42     28.00%    100.00%
system.ruby.Directory_Controller.I_GetSL1C1_0.Stallreqto_in::total          150                      
system.ruby.Directory_Controller.M.allocTBE |       91165     29.66%     29.66% |       79505     25.87%     55.52% |       68232     22.20%     77.72% |       68481     22.28%    100.00%
system.ruby.Directory_Controller.M.allocTBE::total       307383                      
system.ruby.Directory_Controller.M.deallocTBE |       91351     29.65%     29.65% |       79692     25.86%     55.51% |       68436     22.21%     77.72% |       68669     22.28%    100.00%
system.ruby.Directory_Controller.M.deallocTBE::total       308148                      
system.ruby.Directory_Controller.M_GetS.Progress |       17488     38.79%     38.79% |       11040     24.49%     63.27% |        8826     19.58%     82.85% |        7733     17.15%    100.00%
system.ruby.Directory_Controller.M_GetS.Progress::total        45087                      
system.ruby.Directory_Controller.M_GetS.Stallreqto_in |          38     14.45%     14.45% |          50     19.01%     33.46% |          44     16.73%     50.19% |         131     49.81%    100.00%
system.ruby.Directory_Controller.M_GetS.Stallreqto_in::total          263                      
system.ruby.Directory_Controller.M_GetS_WBL1C1_0.Stallreqto_in |         212     13.82%     13.82% |         614     40.03%     53.85% |         278     18.12%     71.97% |         430     28.03%    100.00%
system.ruby.Directory_Controller.M_GetS_WBL1C1_0.Stallreqto_in::total         1534                      
system.ruby.Directory_Controller.Progress |       17488     38.79%     38.79% |       11040     24.49%     63.27% |        8826     19.58%     82.85% |        7733     17.15%    100.00%
system.ruby.Directory_Controller.Progress::total        45087                      
system.ruby.Directory_Controller.S.allocTBE |      480324     31.26%     31.26% |      362531     23.60%     54.86% |      327464     21.31%     76.17% |      366154     23.83%    100.00%
system.ruby.Directory_Controller.S.allocTBE::total      1536473                      
system.ruby.Directory_Controller.S.deallocTBE |      481184     31.25%     31.25% |      363397     23.60%     54.85% |      328300     21.32%     76.17% |      366988     23.83%    100.00%
system.ruby.Directory_Controller.S.deallocTBE::total      1539869                      
system.ruby.Directory_Controller.S_GetML1C1_0.Stallreqto_in |           1      4.35%      4.35% |           1      4.35%      8.70% |           4     17.39%     26.09% |          17     73.91%    100.00%
system.ruby.Directory_Controller.S_GetML1C1_0.Stallreqto_in::total           23                      
system.ruby.Directory_Controller.S_GetSL1C1_0.Stallreqto_in |          16     19.51%     19.51% |          13     15.85%     35.37% |          43     52.44%     87.80% |          10     12.20%    100.00%
system.ruby.Directory_Controller.S_GetSL1C1_0.Stallreqto_in::total           82                      
system.ruby.Directory_Controller.Stallreqto_in |         305     14.37%     14.37% |         760     35.80%     50.16% |         408     19.22%     69.38% |         650     30.62%    100.00%
system.ruby.Directory_Controller.Stallreqto_in::total         2123                      
system.ruby.Directory_Controller.allocTBE |      846285     30.71%     30.71% |      702882     25.51%     56.22% |      579087     21.02%     77.24% |      627191     22.76%    100.00%
system.ruby.Directory_Controller.allocTBE::total      2755445                      
system.ruby.Directory_Controller.deallocTBE |      846285     30.71%     30.71% |      702882     25.51%     56.22% |      579086     21.02%     77.24% |      627191     22.76%    100.00%
system.ruby.Directory_Controller.deallocTBE::total      2755444                      
system.ruby.IFETCH.hit_latency_hist_seqr::bucket_size            1                      
system.ruby.IFETCH.hit_latency_hist_seqr::max_bucket            9                      
system.ruby.IFETCH.hit_latency_hist_seqr::samples    102316625                      
system.ruby.IFETCH.hit_latency_hist_seqr |   102316625    100.00%    100.00% |           0      0.00%    100.00% |           0      0.00%    100.00% |           0      0.00%    100.00% |           0      0.00%    100.00% |           0      0.00%    100.00% |           0      0.00%    100.00% |           0      0.00%    100.00% |           0      0.00%    100.00% |           0      0.00%    100.00%
system.ruby.IFETCH.hit_latency_hist_seqr::total    102316625                      
system.ruby.IFETCH.latency_hist_seqr::bucket_size            1                      
system.ruby.IFETCH.latency_hist_seqr::max_bucket            9                      
system.ruby.IFETCH.latency_hist_seqr::samples    102938163                      
system.ruby.IFETCH.latency_hist_seqr     |   102938163    100.00%    100.00% |           0      0.00%    100.00% |           0      0.00%    100.00% |           0      0.00%    100.00% |           0      0.00%    100.00% |           0      0.00%    100.00% |           0      0.00%    100.00% |           0      0.00%    100.00% |           0      0.00%    100.00% |           0      0.00%    100.00%
system.ruby.IFETCH.latency_hist_seqr::total    102938163                      
system.ruby.IFETCH.miss_latency_hist_seqr::bucket_size            1                      
system.ruby.IFETCH.miss_latency_hist_seqr::max_bucket            9                      
system.ruby.IFETCH.miss_latency_hist_seqr::samples       621538                      
system.ruby.IFETCH.miss_latency_hist_seqr |      621538    100.00%    100.00% |           0      0.00%    100.00% |           0      0.00%    100.00% |           0      0.00%    100.00% |           0      0.00%    100.00% |           0      0.00%    100.00% |           0      0.00%    100.00% |           0      0.00%    100.00% |           0      0.00%    100.00% |           0      0.00%    100.00%
system.ruby.IFETCH.miss_latency_hist_seqr::total       621538                      
system.ruby.L1Cache_Controller.I.allocI_load |      231139     19.65%     19.65% |      286673     24.37%     44.02% |      272278     23.15%     67.16% |      386255     32.84%    100.00%
system.ruby.L1Cache_Controller.I.allocI_load::total      1176345                      
system.ruby.L1Cache_Controller.I.allocI_store |       34133     17.56%     17.56% |       69927     35.97%     53.52% |       33265     17.11%     70.63% |       57093     29.37%    100.00%
system.ruby.L1Cache_Controller.I.allocI_store::total       194418                      
system.ruby.L1Cache_Controller.I.deallocfwdfrom_in |      264293     19.34%     19.34% |      355576     26.02%     45.35% |      304558     22.28%     67.64% |      442336     32.36%    100.00%
system.ruby.L1Cache_Controller.I.deallocfwdfrom_in::total      1366763                      
system.ruby.L1Cache_Controller.I_store.Progress |         220      8.80%      8.80% |         925     36.99%     45.78% |         589     23.55%     69.33% |         767     30.67%    100.00%
system.ruby.L1Cache_Controller.I_store.Progress::total         2501                      
system.ruby.L1Cache_Controller.I_store.Stallfwdfrom_in |          10     23.26%     23.26% |           5     11.63%     34.88% |          21     48.84%     83.72% |           7     16.28%    100.00%
system.ruby.L1Cache_Controller.I_store.Stallfwdfrom_in::total           43                      
system.ruby.L1Cache_Controller.M.MloadMEvent |     3801732     24.99%     24.99% |     3829740     25.18%     50.17% |     2659125     17.48%     67.66% |     4919495     32.34%    100.00%
system.ruby.L1Cache_Controller.M.MloadMEvent::total     15210092                      
system.ruby.L1Cache_Controller.M.MstoreMEvent |     3756735     24.44%     24.44% |     4036373     26.26%     50.70% |     2860134     18.61%     69.30% |     4719219     30.70%    100.00%
system.ruby.L1Cache_Controller.M.MstoreMEvent::total     15372461                      
system.ruby.L1Cache_Controller.M.allocTBE |       78725     25.76%     25.76% |       86646     28.35%     54.10% |       52057     17.03%     71.14% |       88226     28.86%    100.00%
system.ruby.L1Cache_Controller.M.allocTBE::total       305654                      
system.ruby.L1Cache_Controller.M.externalstoreMrespfrom_in |       78910     25.75%     25.75% |       86909     28.36%     54.12% |       52243     17.05%     71.16% |       88357     28.84%    100.00%
system.ruby.L1Cache_Controller.M.externalstoreMrespfrom_in::total       306419                      
system.ruby.L1Cache_Controller.M_evict.Stallmandatory_in |         133     17.64%     17.64% |         236     31.30%     48.94% |         231     30.64%     79.58% |         154     20.42%    100.00%
system.ruby.L1Cache_Controller.M_evict.Stallmandatory_in::total          754                      
system.ruby.L1Cache_Controller.MloadMEvent |     3801732     24.99%     24.99% |     3829740     25.18%     50.17% |     2659125     17.48%     67.66% |     4919495     32.34%    100.00%
system.ruby.L1Cache_Controller.MloadMEvent::total     15210092                      
system.ruby.L1Cache_Controller.MstoreMEvent |     3756735     24.44%     24.44% |     4036373     26.26%     50.70% |     2860134     18.61%     69.30% |     4719219     30.70%    100.00%
system.ruby.L1Cache_Controller.MstoreMEvent::total     15372461                      
system.ruby.L1Cache_Controller.Progress  |      126686     59.92%     59.92% |       22857     10.81%     70.73% |       24720     11.69%     82.42% |       37169     17.58%    100.00%
system.ruby.L1Cache_Controller.Progress::total       211432                      
system.ruby.L1Cache_Controller.S.SloadSEvent |    19322948     17.62%     17.62% |    31122902     28.37%     45.99% |    20761511     18.93%     64.92% |    38477992     35.08%    100.00%
system.ruby.L1Cache_Controller.S.SloadSEvent::total    109685353                      
system.ruby.L1Cache_Controller.S.allocTBE |      260742     21.41%     21.41% |      291142     23.91%     45.31% |      276780     22.73%     68.04% |      389220     31.96%    100.00%
system.ruby.L1Cache_Controller.S.allocTBE::total      1217884                      
system.ruby.L1Cache_Controller.S.deallocTBE |       30397     67.89%     67.89% |        5230     11.68%     79.57% |        5301     11.84%     91.41% |        3846      8.59%    100.00%
system.ruby.L1Cache_Controller.S.deallocTBE::total        44774                      
system.ruby.L1Cache_Controller.S.externalloadSrespfrom_in |      231139     19.65%     19.65% |      286673     24.37%     44.02% |      272277     23.15%     67.16% |      386255     32.84%    100.00%
system.ruby.L1Cache_Controller.S.externalloadSrespfrom_in::total      1176344                      
system.ruby.L1Cache_Controller.S_evict.Progress |           1    100.00%    100.00% |           0      0.00%    100.00% |           0      0.00%    100.00% |           0      0.00%    100.00%
system.ruby.L1Cache_Controller.S_evict.Progress::total            1                      
system.ruby.L1Cache_Controller.S_evict.Stallmandatory_in |         112     16.30%     16.30% |         155     22.56%     38.86% |         283     41.19%     80.06% |         137     19.94%    100.00%
system.ruby.L1Cache_Controller.S_evict.Stallmandatory_in::total          687                      
system.ruby.L1Cache_Controller.S_evict_x_I.Progress |           1    100.00%    100.00% |           0      0.00%    100.00% |           0      0.00%    100.00% |           0      0.00%    100.00%
system.ruby.L1Cache_Controller.S_evict_x_I.Progress::total            1                      
system.ruby.L1Cache_Controller.S_evict_x_I.Stallmandatory_in |           1    100.00%    100.00% |           0      0.00%    100.00% |           0      0.00%    100.00% |           0      0.00%    100.00%
system.ruby.L1Cache_Controller.S_evict_x_I.Stallmandatory_in::total            1                      
system.ruby.L1Cache_Controller.S_store.Progress |      126464     60.53%     60.53% |       21932     10.50%     71.03% |       24130     11.55%     82.58% |       36402     17.42%    100.00%
system.ruby.L1Cache_Controller.S_store.Progress::total       208928                      
system.ruby.L1Cache_Controller.S_store.Stallfwdfrom_in |          10     24.39%     24.39% |          10     24.39%     48.78% |          11     26.83%     75.61% |          10     24.39%    100.00%
system.ruby.L1Cache_Controller.S_store.Stallfwdfrom_in::total           41                      
system.ruby.L1Cache_Controller.S_store_GetM_Ack_AD.Progress |           0      0.00%      0.00% |           0      0.00%      0.00% |           1    100.00%    100.00% |           0      0.00%    100.00%
system.ruby.L1Cache_Controller.S_store_GetM_Ack_AD.Progress::total            1                      
system.ruby.L1Cache_Controller.SloadSEvent |    19322948     17.62%     17.62% |    31122902     28.37%     45.99% |    20761511     18.93%     64.92% |    38477992     35.08%    100.00%
system.ruby.L1Cache_Controller.SloadSEvent::total    109685353                      
system.ruby.L1Cache_Controller.Stallfwdfrom_in |          20     23.81%     23.81% |          15     17.86%     41.67% |          32     38.10%     79.76% |          17     20.24%    100.00%
system.ruby.L1Cache_Controller.Stallfwdfrom_in::total           84                      
system.ruby.L1Cache_Controller.Stallmandatory_in |         246     17.06%     17.06% |         391     27.12%     44.17% |         514     35.64%     79.82% |         291     20.18%    100.00%
system.ruby.L1Cache_Controller.Stallmandatory_in::total         1442                      
system.ruby.L1Cache_Controller.allocI_load |      231139     19.65%     19.65% |      286673     24.37%     44.02% |      272278     23.15%     67.16% |      386255     32.84%    100.00%
system.ruby.L1Cache_Controller.allocI_load::total      1176345                      
system.ruby.L1Cache_Controller.allocI_store |       34133     17.56%     17.56% |       69927     35.97%     53.52% |       33265     17.11%     70.63% |       57093     29.37%    100.00%
system.ruby.L1Cache_Controller.allocI_store::total       194418                      
system.ruby.L1Cache_Controller.allocTBE  |      339467     22.28%     22.28% |      377788     24.80%     47.08% |      328837     21.58%     68.66% |      477446     31.34%    100.00%
system.ruby.L1Cache_Controller.allocTBE::total      1523538                      
system.ruby.L1Cache_Controller.deallocTBE |       30397     67.89%     67.89% |        5230     11.68%     79.57% |        5301     11.84%     91.41% |        3846      8.59%    100.00%
system.ruby.L1Cache_Controller.deallocTBE::total        44774                      
system.ruby.L1Cache_Controller.deallocfwdfrom_in |      264293     19.34%     19.34% |      355576     26.02%     45.35% |      304558     22.28%     67.64% |      442336     32.36%    100.00%
system.ruby.L1Cache_Controller.deallocfwdfrom_in::total      1366763                      
system.ruby.L1Cache_Controller.externalloadSrespfrom_in |      231139     19.65%     19.65% |      286673     24.37%     44.02% |      272277     23.15%     67.16% |      386255     32.84%    100.00%
system.ruby.L1Cache_Controller.externalloadSrespfrom_in::total      1176344                      
system.ruby.L1Cache_Controller.externalstoreMrespfrom_in |       78910     25.75%     25.75% |       86909     28.36%     54.12% |       52243     17.05%     71.16% |       88357     28.84%    100.00%
system.ruby.L1Cache_Controller.externalstoreMrespfrom_in::total       306419                      
system.ruby.LD.hit_latency_hist_seqr::bucket_size            1                      
system.ruby.LD.hit_latency_hist_seqr::max_bucket            9                      
system.ruby.LD.hit_latency_hist_seqr::samples     22578820                      
system.ruby.LD.hit_latency_hist_seqr     |    22578820    100.00%    100.00% |           0      0.00%    100.00% |           0      0.00%    100.00% |           0      0.00%    100.00% |           0      0.00%    100.00% |           0      0.00%    100.00% |           0      0.00%    100.00% |           0      0.00%    100.00% |           0      0.00%    100.00% |           0      0.00%    100.00%
system.ruby.LD.hit_latency_hist_seqr::total     22578820                      
system.ruby.LD.latency_hist_seqr::bucket_size            1                      
system.ruby.LD.latency_hist_seqr::max_bucket            9                      
system.ruby.LD.latency_hist_seqr::samples     23133626                      
system.ruby.LD.latency_hist_seqr         |    23133626    100.00%    100.00% |           0      0.00%    100.00% |           0      0.00%    100.00% |           0      0.00%    100.00% |           0      0.00%    100.00% |           0      0.00%    100.00% |           0      0.00%    100.00% |           0      0.00%    100.00% |           0      0.00%    100.00% |           0      0.00%    100.00%
system.ruby.LD.latency_hist_seqr::total      23133626                      
system.ruby.LD.miss_latency_hist_seqr::bucket_size            1                      
system.ruby.LD.miss_latency_hist_seqr::max_bucket            9                      
system.ruby.LD.miss_latency_hist_seqr::samples       554806                      
system.ruby.LD.miss_latency_hist_seqr    |      554806    100.00%    100.00% |           0      0.00%    100.00% |           0      0.00%    100.00% |           0      0.00%    100.00% |           0      0.00%    100.00% |           0      0.00%    100.00% |           0      0.00%    100.00% |           0      0.00%    100.00% |           0      0.00%    100.00% |           0      0.00%    100.00%
system.ruby.LD.miss_latency_hist_seqr::total       554806                      
system.ruby.Locked_RMW_Read.hit_latency_hist_seqr::bucket_size            1                      
system.ruby.Locked_RMW_Read.hit_latency_hist_seqr::max_bucket            9                      
system.ruby.Locked_RMW_Read.hit_latency_hist_seqr::samples       281801                      
system.ruby.Locked_RMW_Read.hit_latency_hist_seqr |      281801    100.00%    100.00% |           0      0.00%    100.00% |           0      0.00%    100.00% |           0      0.00%    100.00% |           0      0.00%    100.00% |           0      0.00%    100.00% |           0      0.00%    100.00% |           0      0.00%    100.00% |           0      0.00%    100.00% |           0      0.00%    100.00%
system.ruby.Locked_RMW_Read.hit_latency_hist_seqr::total       281801                      
system.ruby.Locked_RMW_Read.latency_hist_seqr::bucket_size            1                      
system.ruby.Locked_RMW_Read.latency_hist_seqr::max_bucket            9                      
system.ruby.Locked_RMW_Read.latency_hist_seqr::samples       322883                      
system.ruby.Locked_RMW_Read.latency_hist_seqr |      322883    100.00%    100.00% |           0      0.00%    100.00% |           0      0.00%    100.00% |           0      0.00%    100.00% |           0      0.00%    100.00% |           0      0.00%    100.00% |           0      0.00%    100.00% |           0      0.00%    100.00% |           0      0.00%    100.00% |           0      0.00%    100.00%
system.ruby.Locked_RMW_Read.latency_hist_seqr::total       322883                      
system.ruby.Locked_RMW_Read.miss_latency_hist_seqr::bucket_size            1                      
system.ruby.Locked_RMW_Read.miss_latency_hist_seqr::max_bucket            9                      
system.ruby.Locked_RMW_Read.miss_latency_hist_seqr::samples        41082                      
system.ruby.Locked_RMW_Read.miss_latency_hist_seqr |       41082    100.00%    100.00% |           0      0.00%    100.00% |           0      0.00%    100.00% |           0      0.00%    100.00% |           0      0.00%    100.00% |           0      0.00%    100.00% |           0      0.00%    100.00% |           0      0.00%    100.00% |           0      0.00%    100.00% |           0      0.00%    100.00%
system.ruby.Locked_RMW_Read.miss_latency_hist_seqr::total        41082                      
system.ruby.Locked_RMW_Write.hit_latency_hist_seqr::bucket_size            1                      
system.ruby.Locked_RMW_Write.hit_latency_hist_seqr::max_bucket            9                      
system.ruby.Locked_RMW_Write.hit_latency_hist_seqr::samples       322883                      
system.ruby.Locked_RMW_Write.hit_latency_hist_seqr |      322883    100.00%    100.00% |           0      0.00%    100.00% |           0      0.00%    100.00% |           0      0.00%    100.00% |           0      0.00%    100.00% |           0      0.00%    100.00% |           0      0.00%    100.00% |           0      0.00%    100.00% |           0      0.00%    100.00% |           0      0.00%    100.00%
system.ruby.Locked_RMW_Write.hit_latency_hist_seqr::total       322883                      
system.ruby.Locked_RMW_Write.latency_hist_seqr::bucket_size            1                      
system.ruby.Locked_RMW_Write.latency_hist_seqr::max_bucket            9                      
system.ruby.Locked_RMW_Write.latency_hist_seqr::samples       322883                      
system.ruby.Locked_RMW_Write.latency_hist_seqr |      322883    100.00%    100.00% |           0      0.00%    100.00% |           0      0.00%    100.00% |           0      0.00%    100.00% |           0      0.00%    100.00% |           0      0.00%    100.00% |           0      0.00%    100.00% |           0      0.00%    100.00% |           0      0.00%    100.00% |           0      0.00%    100.00%
system.ruby.Locked_RMW_Write.latency_hist_seqr::total       322883                      
system.ruby.RMW_Read.hit_latency_hist_seqr::bucket_size            1                      
system.ruby.RMW_Read.hit_latency_hist_seqr::max_bucket            9                      
system.ruby.RMW_Read.hit_latency_hist_seqr::samples       768383                      
system.ruby.RMW_Read.hit_latency_hist_seqr |      768383    100.00%    100.00% |           0      0.00%    100.00% |           0      0.00%    100.00% |           0      0.00%    100.00% |           0      0.00%    100.00% |           0      0.00%    100.00% |           0      0.00%    100.00% |           0      0.00%    100.00% |           0      0.00%    100.00% |           0      0.00%    100.00%
system.ruby.RMW_Read.hit_latency_hist_seqr::total       768383                      
system.ruby.RMW_Read.latency_hist_seqr::bucket_size            1                      
system.ruby.RMW_Read.latency_hist_seqr::max_bucket            9                      
system.ruby.RMW_Read.latency_hist_seqr::samples       789816                      
system.ruby.RMW_Read.latency_hist_seqr   |      789816    100.00%    100.00% |           0      0.00%    100.00% |           0      0.00%    100.00% |           0      0.00%    100.00% |           0      0.00%    100.00% |           0      0.00%    100.00% |           0      0.00%    100.00% |           0      0.00%    100.00% |           0      0.00%    100.00% |           0      0.00%    100.00%
system.ruby.RMW_Read.latency_hist_seqr::total       789816                      
system.ruby.RMW_Read.miss_latency_hist_seqr::bucket_size            1                      
system.ruby.RMW_Read.miss_latency_hist_seqr::max_bucket            9                      
system.ruby.RMW_Read.miss_latency_hist_seqr::samples        21433                      
system.ruby.RMW_Read.miss_latency_hist_seqr |       21433    100.00%    100.00% |           0      0.00%    100.00% |           0      0.00%    100.00% |           0      0.00%    100.00% |           0      0.00%    100.00% |           0      0.00%    100.00% |           0      0.00%    100.00% |           0      0.00%    100.00% |           0      0.00%    100.00% |           0      0.00%    100.00%
system.ruby.RMW_Read.miss_latency_hist_seqr::total        21433                      
system.ruby.ST.hit_latency_hist_seqr::bucket_size            1                      
system.ruby.ST.hit_latency_hist_seqr::max_bucket            9                      
system.ruby.ST.hit_latency_hist_seqr::samples     13999394                      
system.ruby.ST.hit_latency_hist_seqr     |    13999394    100.00%    100.00% |           0      0.00%    100.00% |           0      0.00%    100.00% |           0      0.00%    100.00% |           0      0.00%    100.00% |           0      0.00%    100.00% |           0      0.00%    100.00% |           0      0.00%    100.00% |           0      0.00%    100.00% |           0      0.00%    100.00%
system.ruby.ST.hit_latency_hist_seqr::total     13999394                      
system.ruby.ST.latency_hist_seqr::bucket_size            1                      
system.ruby.ST.latency_hist_seqr::max_bucket            9                      
system.ruby.ST.latency_hist_seqr::samples     14243298                      
system.ruby.ST.latency_hist_seqr         |    14243298    100.00%    100.00% |           0      0.00%    100.00% |           0      0.00%    100.00% |           0      0.00%    100.00% |           0      0.00%    100.00% |           0      0.00%    100.00% |           0      0.00%    100.00% |           0      0.00%    100.00% |           0      0.00%    100.00% |           0      0.00%    100.00%
system.ruby.ST.latency_hist_seqr::total      14243298                      
system.ruby.ST.miss_latency_hist_seqr::bucket_size            1                      
system.ruby.ST.miss_latency_hist_seqr::max_bucket            9                      
system.ruby.ST.miss_latency_hist_seqr::samples       243904                      
system.ruby.ST.miss_latency_hist_seqr    |      243904    100.00%    100.00% |           0      0.00%    100.00% |           0      0.00%    100.00% |           0      0.00%    100.00% |           0      0.00%    100.00% |           0      0.00%    100.00% |           0      0.00%    100.00% |           0      0.00%    100.00% |           0      0.00%    100.00% |           0      0.00%    100.00%
system.ruby.ST.miss_latency_hist_seqr::total       243904                      
system.ruby.dir_cntrl0.fwdFrom.avg_buf_msgs     0.000249                       # Average number of messages in buffer
system.ruby.dir_cntrl0.fwdFrom.avg_stall_time  2999.981852                       # Average number of cycles messages are stalled in this MB
system.ruby.dir_cntrl0.reqTo.avg_buf_msgs     0.000084                       # Average number of messages in buffer
system.ruby.dir_cntrl0.reqTo.avg_stall_time  4059.087158                       # Average number of cycles messages are stalled in this MB
system.ruby.dir_cntrl0.requestToMemory.avg_buf_msgs     0.000052                       # Average number of messages in buffer
system.ruby.dir_cntrl0.requestToMemory.avg_stall_time   499.999999                       # Average number of cycles messages are stalled in this MB
system.ruby.dir_cntrl0.respFrom.avg_buf_msgs     0.000270                       # Average number of messages in buffer
system.ruby.dir_cntrl0.respFrom.avg_stall_time  3000.655027                       # Average number of cycles messages are stalled in this MB
system.ruby.dir_cntrl0.respTo.avg_buf_msgs     0.000002                       # Average number of messages in buffer
system.ruby.dir_cntrl0.respTo.avg_stall_time 23749.811441                       # Average number of cycles messages are stalled in this MB
system.ruby.dir_cntrl0.responseFromMemory.avg_buf_msgs     0.000052                       # Average number of messages in buffer
system.ruby.dir_cntrl0.responseFromMemory.avg_stall_time   499.999991                       # Average number of cycles messages are stalled in this MB
system.ruby.dir_cntrl1.fwdFrom.avg_buf_msgs     0.000204                       # Average number of messages in buffer
system.ruby.dir_cntrl1.fwdFrom.avg_stall_time  2999.978233                       # Average number of cycles messages are stalled in this MB
system.ruby.dir_cntrl1.reqTo.avg_buf_msgs     0.000070                       # Average number of messages in buffer
system.ruby.dir_cntrl1.reqTo.avg_stall_time  4454.010949                       # Average number of cycles messages are stalled in this MB
system.ruby.dir_cntrl1.requestToMemory.avg_buf_msgs     0.000044                       # Average number of messages in buffer
system.ruby.dir_cntrl1.requestToMemory.avg_stall_time   499.999978                       # Average number of cycles messages are stalled in this MB
system.ruby.dir_cntrl1.respFrom.avg_buf_msgs     0.000225                       # Average number of messages in buffer
system.ruby.dir_cntrl1.respFrom.avg_stall_time  3000.572497                       # Average number of cycles messages are stalled in this MB
system.ruby.dir_cntrl1.respTo.avg_buf_msgs     0.000001                       # Average number of messages in buffer
system.ruby.dir_cntrl1.respTo.avg_stall_time 24481.582279                       # Average number of cycles messages are stalled in this MB
system.ruby.dir_cntrl1.responseFromMemory.avg_buf_msgs     0.000044                       # Average number of messages in buffer
system.ruby.dir_cntrl1.responseFromMemory.avg_stall_time   499.999970                       # Average number of cycles messages are stalled in this MB
system.ruby.dir_cntrl2.fwdFrom.avg_buf_msgs     0.000168                       # Average number of messages in buffer
system.ruby.dir_cntrl2.fwdFrom.avg_stall_time  2999.986667                       # Average number of cycles messages are stalled in this MB
system.ruby.dir_cntrl2.reqTo.avg_buf_msgs     0.000057                       # Average number of messages in buffer
system.ruby.dir_cntrl2.reqTo.avg_stall_time  3583.399744                       # Average number of cycles messages are stalled in this MB
system.ruby.dir_cntrl2.requestToMemory.avg_buf_msgs     0.000036                       # Average number of messages in buffer
system.ruby.dir_cntrl2.requestToMemory.avg_stall_time   499.999989                       # Average number of cycles messages are stalled in this MB
system.ruby.dir_cntrl2.respFrom.avg_buf_msgs     0.000188                       # Average number of messages in buffer
system.ruby.dir_cntrl2.respFrom.avg_stall_time  3000.748653                       # Average number of cycles messages are stalled in this MB
system.ruby.dir_cntrl2.respTo.avg_buf_msgs     0.000001                       # Average number of messages in buffer
system.ruby.dir_cntrl2.respTo.avg_stall_time 24574.759933                       # Average number of cycles messages are stalled in this MB
system.ruby.dir_cntrl2.responseFromMemory.avg_buf_msgs     0.000036                       # Average number of messages in buffer
system.ruby.dir_cntrl2.responseFromMemory.avg_stall_time   499.999981                       # Average number of cycles messages are stalled in this MB
system.ruby.dir_cntrl3.fwdFrom.avg_buf_msgs     0.000182                       # Average number of messages in buffer
system.ruby.dir_cntrl3.fwdFrom.avg_stall_time  2999.983782                       # Average number of cycles messages are stalled in this MB
system.ruby.dir_cntrl3.reqTo.avg_buf_msgs     0.000062                       # Average number of messages in buffer
system.ruby.dir_cntrl3.reqTo.avg_stall_time  3977.544158                       # Average number of cycles messages are stalled in this MB
system.ruby.dir_cntrl3.requestToMemory.avg_buf_msgs     0.000039                       # Average number of messages in buffer
system.ruby.dir_cntrl3.requestToMemory.avg_stall_time   499.999968                       # Average number of cycles messages are stalled in this MB
system.ruby.dir_cntrl3.respFrom.avg_buf_msgs     0.000202                       # Average number of messages in buffer
system.ruby.dir_cntrl3.respFrom.avg_stall_time  3000.711941                       # Average number of cycles messages are stalled in this MB
system.ruby.dir_cntrl3.respTo.avg_buf_msgs     0.000001                       # Average number of messages in buffer
system.ruby.dir_cntrl3.respTo.avg_stall_time 25389.758326                       # Average number of cycles messages are stalled in this MB
system.ruby.dir_cntrl3.responseFromMemory.avg_buf_msgs     0.000039                       # Average number of messages in buffer
system.ruby.dir_cntrl3.responseFromMemory.avg_stall_time   499.999960                       # Average number of cycles messages are stalled in this MB
system.ruby.dma_cntrl0.cache.demand_accesses            0                       # Number of cache demand accesses
system.ruby.dma_cntrl0.cache.demand_hits            0                       # Number of cache demand hits
system.ruby.dma_cntrl0.cache.demand_misses            0                       # Number of cache demand misses
system.ruby.dma_cntrl0.fully_busy_cycles        16293                       # cycles for which number of transistions == max transitions
system.ruby.dma_cntrl0.fwdFrom.avg_buf_msgs     0.000000                       # Average number of messages in buffer
system.ruby.dma_cntrl0.fwdFrom.avg_stall_time  8702.452202                       # Average number of cycles messages are stalled in this MB
system.ruby.dma_cntrl0.mandatoryQueue.avg_buf_msgs     0.000100                       # Average number of messages in buffer
system.ruby.dma_cntrl0.mandatoryQueue.avg_stall_time 301642.486634                       # Average number of cycles messages are stalled in this MB
system.ruby.dma_cntrl0.reqTo.avg_buf_msgs     0.000166                       # Average number of messages in buffer
system.ruby.dma_cntrl0.reqTo.avg_stall_time  9879.715708                       # Average number of cycles messages are stalled in this MB
system.ruby.dma_cntrl0.respFrom.avg_buf_msgs     0.000001                       # Average number of messages in buffer
system.ruby.dma_cntrl0.respFrom.avg_stall_time 412549.743621                       # Average number of cycles messages are stalled in this MB
system.ruby.dma_cntrl0.respTo.avg_buf_msgs     0.000000                       # Average number of messages in buffer
system.ruby.dma_cntrl0.respTo.avg_stall_time   731.294077                       # Average number of cycles messages are stalled in this MB
system.ruby.hit_latency_hist_seqr::bucket_size            1                      
system.ruby.hit_latency_hist_seqr::max_bucket            9                      
system.ruby.hit_latency_hist_seqr::samples    140267906                      
system.ruby.hit_latency_hist_seqr        |   140267906    100.00%    100.00% |           0      0.00%    100.00% |           0      0.00%    100.00% |           0      0.00%    100.00% |           0      0.00%    100.00% |           0      0.00%    100.00% |           0      0.00%    100.00% |           0      0.00%    100.00% |           0      0.00%    100.00% |           0      0.00%    100.00%
system.ruby.hit_latency_hist_seqr::total    140267906                      
system.ruby.io_controller.cache.demand_accesses            0                       # Number of cache demand accesses
system.ruby.io_controller.cache.demand_hits            0                       # Number of cache demand hits
system.ruby.io_controller.cache.demand_misses            0                       # Number of cache demand misses
system.ruby.l1_cntrl0.cache.demand_accesses            0                       # Number of cache demand accesses
system.ruby.l1_cntrl0.cache.demand_hits             0                       # Number of cache demand hits
system.ruby.l1_cntrl0.cache.demand_misses            0                       # Number of cache demand misses
system.ruby.l1_cntrl0.fully_busy_cycles             3                       # cycles for which number of transistions == max transitions
system.ruby.l1_cntrl0.fwdFrom.avg_buf_msgs     4.957504                       # Average number of messages in buffer
system.ruby.l1_cntrl0.fwdFrom.avg_stall_time  6175.691965                       # Average number of cycles messages are stalled in this MB
system.ruby.l1_cntrl0.mandatoryQueue.avg_buf_msgs     0.003300                       # Average number of messages in buffer
system.ruby.l1_cntrl0.mandatoryQueue.avg_stall_time   529.272539                       # Average number of cycles messages are stalled in this MB
system.ruby.l1_cntrl0.reqTo.avg_buf_msgs     0.000056                       # Average number of messages in buffer
system.ruby.l1_cntrl0.reqTo.avg_stall_time   499.969853                       # Average number of cycles messages are stalled in this MB
system.ruby.l1_cntrl0.respFrom.avg_buf_msgs     0.000039                       # Average number of messages in buffer
system.ruby.l1_cntrl0.respFrom.avg_stall_time 16496.518652                       # Average number of cycles messages are stalled in this MB
system.ruby.l1_cntrl0.respTo.avg_buf_msgs     0.000010                       # Average number of messages in buffer
system.ruby.l1_cntrl0.respTo.avg_stall_time   893.162752                       # Average number of cycles messages are stalled in this MB
system.ruby.l1_cntrl1.cache.demand_accesses            0                       # Number of cache demand accesses
system.ruby.l1_cntrl1.cache.demand_hits             0                       # Number of cache demand hits
system.ruby.l1_cntrl1.cache.demand_misses            0                       # Number of cache demand misses
system.ruby.l1_cntrl1.fully_busy_cycles             2                       # cycles for which number of transistions == max transitions
system.ruby.l1_cntrl1.fwdFrom.avg_buf_msgs     3.996813                       # Average number of messages in buffer
system.ruby.l1_cntrl1.fwdFrom.avg_stall_time  7440.068336                       # Average number of cycles messages are stalled in this MB
system.ruby.l1_cntrl1.mandatoryQueue.avg_buf_msgs     0.004721                       # Average number of messages in buffer
system.ruby.l1_cntrl1.mandatoryQueue.avg_stall_time   546.532138                       # Average number of cycles messages are stalled in this MB
system.ruby.l1_cntrl1.reqTo.avg_buf_msgs     0.000069                       # Average number of messages in buffer
system.ruby.l1_cntrl1.reqTo.avg_stall_time   500.000148                       # Average number of cycles messages are stalled in this MB
system.ruby.l1_cntrl1.respFrom.avg_buf_msgs     0.000037                       # Average number of messages in buffer
system.ruby.l1_cntrl1.respFrom.avg_stall_time 17488.455554                       # Average number of cycles messages are stalled in this MB
system.ruby.l1_cntrl1.respTo.avg_buf_msgs     0.000005                       # Average number of messages in buffer
system.ruby.l1_cntrl1.respTo.avg_stall_time   592.121298                       # Average number of cycles messages are stalled in this MB
system.ruby.l1_cntrl2.cache.demand_accesses            0                       # Number of cache demand accesses
system.ruby.l1_cntrl2.cache.demand_hits             0                       # Number of cache demand hits
system.ruby.l1_cntrl2.cache.demand_misses            0                       # Number of cache demand misses
system.ruby.l1_cntrl2.fully_busy_cycles             3                       # cycles for which number of transistions == max transitions
system.ruby.l1_cntrl2.fwdFrom.avg_buf_msgs     5.947742                       # Average number of messages in buffer
system.ruby.l1_cntrl2.fwdFrom.avg_stall_time  6548.704468                       # Average number of cycles messages are stalled in this MB
system.ruby.l1_cntrl2.mandatoryQueue.avg_buf_msgs     0.003279                       # Average number of messages in buffer
system.ruby.l1_cntrl2.mandatoryQueue.avg_stall_time   532.156570                       # Average number of cycles messages are stalled in this MB
system.ruby.l1_cntrl2.reqTo.avg_buf_msgs     0.000059                       # Average number of messages in buffer
system.ruby.l1_cntrl2.reqTo.avg_stall_time   499.918065                       # Average number of cycles messages are stalled in this MB
system.ruby.l1_cntrl2.respFrom.avg_buf_msgs     0.000033                       # Average number of messages in buffer
system.ruby.l1_cntrl2.respFrom.avg_stall_time 15509.507868                       # Average number of cycles messages are stalled in this MB
system.ruby.l1_cntrl2.respTo.avg_buf_msgs     0.000009                       # Average number of messages in buffer
system.ruby.l1_cntrl2.respTo.avg_stall_time   584.188083                       # Average number of cycles messages are stalled in this MB
system.ruby.l1_cntrl3.cache.demand_accesses            0                       # Number of cache demand accesses
system.ruby.l1_cntrl3.cache.demand_hits             0                       # Number of cache demand hits
system.ruby.l1_cntrl3.cache.demand_misses            0                       # Number of cache demand misses
system.ruby.l1_cntrl3.fully_busy_cycles             9                       # cycles for which number of transistions == max transitions
system.ruby.l1_cntrl3.fwdFrom.avg_buf_msgs     0.000044                       # Average number of messages in buffer
system.ruby.l1_cntrl3.fwdFrom.avg_stall_time  7437.166611                       # Average number of cycles messages are stalled in this MB
system.ruby.l1_cntrl3.mandatoryQueue.avg_buf_msgs     0.005825                       # Average number of messages in buffer
system.ruby.l1_cntrl3.mandatoryQueue.avg_stall_time   551.698080                       # Average number of cycles messages are stalled in this MB
system.ruby.l1_cntrl3.reqTo.avg_buf_msgs     0.000087                       # Average number of messages in buffer
system.ruby.l1_cntrl3.reqTo.avg_stall_time   499.945931                       # Average number of cycles messages are stalled in this MB
system.ruby.l1_cntrl3.respFrom.avg_buf_msgs     0.000047                       # Average number of messages in buffer
system.ruby.l1_cntrl3.respFrom.avg_stall_time 16500.434885                       # Average number of cycles messages are stalled in this MB
system.ruby.l1_cntrl3.respTo.avg_buf_msgs     0.000004                       # Average number of messages in buffer
system.ruby.l1_cntrl3.respTo.avg_stall_time   529.136858                       # Average number of cycles messages are stalled in this MB
system.ruby.latency_hist_seqr::bucket_size            1                      
system.ruby.latency_hist_seqr::max_bucket            9                      
system.ruby.latency_hist_seqr::samples      141750669                      
system.ruby.latency_hist_seqr            |   141750669    100.00%    100.00% |           0      0.00%    100.00% |           0      0.00%    100.00% |           0      0.00%    100.00% |           0      0.00%    100.00% |           0      0.00%    100.00% |           0      0.00%    100.00% |           0      0.00%    100.00% |           0      0.00%    100.00% |           0      0.00%    100.00%
system.ruby.latency_hist_seqr::total        141750669                      
system.ruby.miss_latency_hist_seqr::bucket_size            1                      
system.ruby.miss_latency_hist_seqr::max_bucket            9                      
system.ruby.miss_latency_hist_seqr::samples      1482763                      
system.ruby.miss_latency_hist_seqr       |     1482763    100.00%    100.00% |           0      0.00%    100.00% |           0      0.00%    100.00% |           0      0.00%    100.00% |           0      0.00%    100.00% |           0      0.00%    100.00% |           0      0.00%    100.00% |           0      0.00%    100.00% |           0      0.00%    100.00% |           0      0.00%    100.00%
system.ruby.miss_latency_hist_seqr::total      1482763                      
system.ruby.network.average_flit_latency    17.344691                      
system.ruby.network.average_flit_network_latency    12.502896                      
system.ruby.network.average_flit_queueing_latency     4.841795                      
system.ruby.network.average_flit_vnet_latency |   15.813127                       |    5.096630                       |    8.481718                       |         nan                       |         nan                       |         nan                       |         nan                       |         nan                      
system.ruby.network.average_flit_vqueue_latency |    5.904921                       |    6.000002                       |    2.226644                       |         nan                       |         nan                       |         nan                       |         nan                       |         nan                      
system.ruby.network.average_hops             1.002525                      
system.ruby.network.average_packet_latency    15.285022                      
system.ruby.network.average_packet_network_latency    11.463448                      
system.ruby.network.average_packet_queueing_latency     3.821574                      
system.ruby.network.average_packet_vnet_latency |   24.712903                       |    5.096630                       |    6.884664                       |         nan                       |         nan                       |         nan                       |         nan                       |         nan                      
system.ruby.network.average_packet_vqueue_latency |    5.666033                       |    6.000002                       |    1.608660                       |         nan                       |         nan                       |         nan                       |         nan                       |         nan                      
system.ruby.network.avg_link_utilization     0.003837                      
system.ruby.network.avg_vc_load          |    0.001698     44.24%     44.24% |    0.000217      5.67%     49.91% |    0.000196      5.11%     55.02% |    0.000193      5.03%     60.04% |    0.000311      8.11%     68.15% |    0.000037      0.96%     69.11% |    0.000035      0.91%     70.02% |    0.000035      0.91%     70.93% |    0.000832     21.69%     92.62% |    0.000097      2.52%     95.14% |    0.000093      2.43%     97.57% |    0.000093      2.43%    100.00% |           0      0.00%    100.00% |           0      0.00%    100.00% |           0      0.00%    100.00% |           0      0.00%    100.00% |           0      0.00%    100.00% |           0      0.00%    100.00% |           0      0.00%    100.00% |           0      0.00%    100.00% |           0      0.00%    100.00% |           0      0.00%    100.00% |           0      0.00%    100.00% |           0      0.00%    100.00% |           0      0.00%    100.00% |           0      0.00%    100.00% |           0      0.00%    100.00% |           0      0.00%    100.00% |           0      0.00%    100.00% |           0      0.00%    100.00% |           0      0.00%    100.00% |           0      0.00%    100.00%
system.ruby.network.avg_vc_load::total       0.003837                      
system.ruby.network.ext_in_link_utilization     12968174                      
system.ruby.network.ext_out_link_utilization     12968174                      
system.ruby.network.flit_network_latency |   122818912                       |     7219341                       |    32101480                       |           0                       |           0                       |           0                       |           0                       |           0                      
system.ruby.network.flit_queueing_latency |    45862906                       |     8498961                       |     8427367                       |           0                       |           0                       |           0                       |           0                       |           0                      
system.ruby.network.flits_injected       |     7766896     59.89%     59.89% |     1416493     10.92%     70.81% |     3784785     29.19%    100.00% |           0      0.00%    100.00% |           0      0.00%    100.00% |           0      0.00%    100.00% |           0      0.00%    100.00% |           0      0.00%    100.00%
system.ruby.network.flits_injected::total     12968174                      
system.ruby.network.flits_received       |     7766896     59.89%     59.89% |     1416493     10.92%     70.81% |     3784785     29.19%    100.00% |           0      0.00%    100.00% |           0      0.00%    100.00% |           0      0.00%    100.00% |           0      0.00%    100.00% |           0      0.00%    100.00%
system.ruby.network.flits_received::total     12968174                      
system.ruby.network.int_link_utilization     13000924                      
system.ruby.network.packet_network_latency |    40353897                       |     7219341                       |    18970314                       |           0                       |           0                       |           0                       |           0                       |           0                      
system.ruby.network.packet_queueing_latency |     9252110                       |     8498961                       |     4432575                       |           0                       |           0                       |           0                       |           0                       |           0                      
system.ruby.network.packets_injected     |     1632908     28.13%     28.13% |     1416493     24.40%     52.53% |     2755445     47.47%    100.00% |           0      0.00%    100.00% |           0      0.00%    100.00% |           0      0.00%    100.00% |           0      0.00%    100.00% |           0      0.00%    100.00%
system.ruby.network.packets_injected::total      5804846                      
system.ruby.network.packets_received     |     1632908     28.13%     28.13% |     1416493     24.40%     52.53% |     2755445     47.47%    100.00% |           0      0.00%    100.00% |           0      0.00%    100.00% |           0      0.00%    100.00% |           0      0.00%    100.00% |           0      0.00%    100.00%
system.ruby.network.packets_received::total      5804846                      
system.ruby.network.routers0.buffer_reads      6678189                      
system.ruby.network.routers0.buffer_writes      6678189                      
system.ruby.network.routers0.crossbar_activity      6678189                      
system.ruby.network.routers0.sw_input_arbiter_activity      6697490                      
system.ruby.network.routers0.sw_output_arbiter_activity      6678189                      
system.ruby.network.routers1.buffer_reads      6890899                      
system.ruby.network.routers1.buffer_writes      6890899                      
system.ruby.network.routers1.crossbar_activity      6890899                      
system.ruby.network.routers1.sw_input_arbiter_activity      6894511                      
system.ruby.network.routers1.sw_output_arbiter_activity      6890899                      
system.ruby.network.routers2.buffer_reads      5629717                      
system.ruby.network.routers2.buffer_writes      5629717                      
system.ruby.network.routers2.crossbar_activity      5629717                      
system.ruby.network.routers2.sw_input_arbiter_activity      5636191                      
system.ruby.network.routers2.sw_output_arbiter_activity      5629717                      
system.ruby.network.routers3.buffer_reads      6770293                      
system.ruby.network.routers3.buffer_writes      6770293                      
system.ruby.network.routers3.crossbar_activity      6770293                      
system.ruby.network.routers3.sw_input_arbiter_activity      6774197                      
system.ruby.network.routers3.sw_output_arbiter_activity      6770293                      
system.ruby.outstanding_req_hist_seqr::bucket_size            1                      
system.ruby.outstanding_req_hist_seqr::max_bucket            9                      
system.ruby.outstanding_req_hist_seqr::samples    141750670                      
system.ruby.outstanding_req_hist_seqr::mean     1.000471                      
system.ruby.outstanding_req_hist_seqr::gmean     1.000326                      
system.ruby.outstanding_req_hist_seqr::stdev     0.021696                      
system.ruby.outstanding_req_hist_seqr    |           0      0.00%      0.00% |   141683916     99.95%     99.95% |       66754      0.05%    100.00% |           0      0.00%    100.00% |           0      0.00%    100.00% |           0      0.00%    100.00% |           0      0.00%    100.00% |           0      0.00%    100.00% |           0      0.00%    100.00% |           0      0.00%    100.00%
system.ruby.outstanding_req_hist_seqr::total    141750670                      
system.switch_cpus0.Branches                  4068101                       # Number of branches fetched
system.switch_cpus0.committedInsts           13747122                       # Number of instructions committed
system.switch_cpus0.committedOps             34901086                       # Number of ops (including micro ops) committed
system.switch_cpus0.dtb.rdAccesses            5280483                       # TLB accesses on read requests
system.switch_cpus0.dtb.rdMisses                10820                       # TLB misses on read requests
system.switch_cpus0.dtb.wrAccesses            3538124                       # TLB accesses on write requests
system.switch_cpus0.dtb.wrMisses                 1796                       # TLB misses on write requests
system.switch_cpus0.idle_fraction            0.991163                       # Percentage of idle cycles
system.switch_cpus0.itb.rdAccesses                  0                       # TLB accesses on read requests
system.switch_cpus0.itb.rdMisses                    0                       # TLB misses on read requests
system.switch_cpus0.itb.wrAccesses           18337147                       # TLB accesses on write requests
system.switch_cpus0.itb.wrMisses                 2642                       # TLB misses on write requests
system.switch_cpus0.kern.inst.arm                   0                       # number of arm instructions executed
system.switch_cpus0.kern.inst.quiesce               0                       # number of quiesce instructions executed
system.switch_cpus0.not_idle_fraction        0.008837                       # Percentage of non-idle cycles
system.switch_cpus0.numCycles             10146998120                       # number of cpu cycles simulated
system.switch_cpus0.numWorkItemsCompleted            0                       # number of work items this cpu completed
system.switch_cpus0.numWorkItemsStarted             0                       # number of work items this cpu started
system.switch_cpus0.num_busy_cycles      89672860.647988                       # Number of busy cycles
system.switch_cpus0.num_cc_register_reads     19123601                       # number of times the CC registers were read
system.switch_cpus0.num_cc_register_writes      8773833                       # number of times the CC registers were written
system.switch_cpus0.num_conditional_control_insts      2348630                       # number of instructions that are conditional controls
system.switch_cpus0.num_fp_alu_accesses         51360                       # Number of float alu accesses
system.switch_cpus0.num_fp_insts                51360                       # number of float instructions
system.switch_cpus0.num_fp_register_reads        76923                       # number of times the floating registers were read
system.switch_cpus0.num_fp_register_writes        40745                       # number of times the floating registers were written
system.switch_cpus0.num_func_calls            1429066                       # number of times a function call or return occured
system.switch_cpus0.num_idle_cycles      10057325259.352013                       # Number of idle cycles
system.switch_cpus0.num_int_alu_accesses     33641602                       # Number of integer alu accesses
system.switch_cpus0.num_int_insts            33641602                       # number of integer instructions
system.switch_cpus0.num_int_register_reads     69501477                       # number of times the integer registers were read
system.switch_cpus0.num_int_register_writes     27165791                       # number of times the integer registers were written
system.switch_cpus0.num_load_insts            5264021                       # Number of load instructions
system.switch_cpus0.num_mem_refs              8800263                       # number of memory refs
system.switch_cpus0.num_store_insts           3536242                       # Number of store instructions
system.switch_cpus0.num_vec_alu_accesses            0                       # Number of vector alu accesses
system.switch_cpus0.num_vec_insts                   0                       # number of vector instructions
system.switch_cpus0.num_vec_register_reads            0                       # number of times the vector registers were read
system.switch_cpus0.num_vec_register_writes            0                       # number of times the vector registers were written
system.switch_cpus0.op_class::No_OpClass      1028777      2.95%      2.95% # Class of executed instruction
system.switch_cpus0.op_class::IntAlu         24918755     71.40%     74.34% # Class of executed instruction
system.switch_cpus0.op_class::IntMult           59576      0.17%     74.51% # Class of executed instruction
system.switch_cpus0.op_class::IntDiv            64126      0.18%     74.70% # Class of executed instruction
system.switch_cpus0.op_class::FloatAdd            741      0.00%     74.70% # Class of executed instruction
system.switch_cpus0.op_class::FloatCmp              0      0.00%     74.70% # Class of executed instruction
system.switch_cpus0.op_class::FloatCvt            240      0.00%     74.70% # Class of executed instruction
system.switch_cpus0.op_class::FloatMult             0      0.00%     74.70% # Class of executed instruction
system.switch_cpus0.op_class::FloatMultAcc            0      0.00%     74.70% # Class of executed instruction
system.switch_cpus0.op_class::FloatDiv              0      0.00%     74.70% # Class of executed instruction
system.switch_cpus0.op_class::FloatMisc             0      0.00%     74.70% # Class of executed instruction
system.switch_cpus0.op_class::FloatSqrt             0      0.00%     74.70% # Class of executed instruction
system.switch_cpus0.op_class::SimdAdd            2164      0.01%     74.71% # Class of executed instruction
system.switch_cpus0.op_class::SimdAddAcc            0      0.00%     74.71% # Class of executed instruction
system.switch_cpus0.op_class::SimdAlu            8790      0.03%     74.73% # Class of executed instruction
system.switch_cpus0.op_class::SimdCmp             588      0.00%     74.73% # Class of executed instruction
system.switch_cpus0.op_class::SimdCvt            9116      0.03%     74.76% # Class of executed instruction
system.switch_cpus0.op_class::SimdMisc           7797      0.02%     74.78% # Class of executed instruction
system.switch_cpus0.op_class::SimdMult              0      0.00%     74.78% # Class of executed instruction
system.switch_cpus0.op_class::SimdMultAcc            0      0.00%     74.78% # Class of executed instruction
system.switch_cpus0.op_class::SimdShift          1238      0.00%     74.79% # Class of executed instruction
system.switch_cpus0.op_class::SimdShiftAcc            0      0.00%     74.79% # Class of executed instruction
system.switch_cpus0.op_class::SimdDiv               0      0.00%     74.79% # Class of executed instruction
system.switch_cpus0.op_class::SimdSqrt              0      0.00%     74.79% # Class of executed instruction
system.switch_cpus0.op_class::SimdFloatAdd            0      0.00%     74.79% # Class of executed instruction
system.switch_cpus0.op_class::SimdFloatAlu            0      0.00%     74.79% # Class of executed instruction
system.switch_cpus0.op_class::SimdFloatCmp            0      0.00%     74.79% # Class of executed instruction
system.switch_cpus0.op_class::SimdFloatCvt            0      0.00%     74.79% # Class of executed instruction
system.switch_cpus0.op_class::SimdFloatDiv            0      0.00%     74.79% # Class of executed instruction
system.switch_cpus0.op_class::SimdFloatMisc            0      0.00%     74.79% # Class of executed instruction
system.switch_cpus0.op_class::SimdFloatMult            0      0.00%     74.79% # Class of executed instruction
system.switch_cpus0.op_class::SimdFloatMultAcc            0      0.00%     74.79% # Class of executed instruction
system.switch_cpus0.op_class::SimdFloatSqrt            0      0.00%     74.79% # Class of executed instruction
system.switch_cpus0.op_class::SimdReduceAdd            0      0.00%     74.79% # Class of executed instruction
system.switch_cpus0.op_class::SimdReduceAlu            0      0.00%     74.79% # Class of executed instruction
system.switch_cpus0.op_class::SimdReduceCmp            0      0.00%     74.79% # Class of executed instruction
system.switch_cpus0.op_class::SimdFloatReduceAdd            0      0.00%     74.79% # Class of executed instruction
system.switch_cpus0.op_class::SimdFloatReduceCmp            0      0.00%     74.79% # Class of executed instruction
system.switch_cpus0.op_class::SimdAes               0      0.00%     74.79% # Class of executed instruction
system.switch_cpus0.op_class::SimdAesMix            0      0.00%     74.79% # Class of executed instruction
system.switch_cpus0.op_class::SimdSha1Hash            0      0.00%     74.79% # Class of executed instruction
system.switch_cpus0.op_class::SimdSha1Hash2            0      0.00%     74.79% # Class of executed instruction
[...]
system.mem_ctrls1.llc.tags.age_task_id_blocks_1024::4        36035                       # Occupied blocks per task id
system.mem_ctrls1.llc.tags.occ_task_id_percent::1024     0.142475                       # Percentage of cache occupancy per task id
system.mem_ctrls1.llc.tags.tag_accesses       7184885                       # Number of tag accesses
system.mem_ctrls1.llc.tags.data_accesses       446721                       # Number of data accesses
system.mem_ctrls1.llc.tags.power_state.pwrStateResidencyTicks::UNDEFINED 105270758106001                       # Cumulative time (in ticks) in various power states
system.mem_ctrls1.rank1.actEnergy            38141880                       # Energy for activate commands per rank (pJ)
system.mem_ctrls1.rank1.preEnergy            20265300                       # Energy for precharge commands per rank (pJ)
system.mem_ctrls1.rank1.readEnergy          130255020                       # Energy for read commands per rank (pJ)
system.mem_ctrls1.rank1.writeEnergy                 0                       # Energy for write commands per rank (pJ)
system.mem_ctrls1.rank1.refreshEnergy    400537531680.000061                       # Energy for refresh commands per rank (pJ)
system.mem_ctrls1.rank1.actBackEnergy     81689809920                       # Energy for active background per rank (pJ)
system.mem_ctrls1.rank1.preBackEnergy    1879626499680                       # Energy for precharge background per rank (pJ)
system.mem_ctrls1.rank1.actPowerDownEnergy            0                       # Energy for active power-down per rank (pJ)
system.mem_ctrls1.rank1.prePowerDownEnergy            0                       # Energy for precharge power-down per rank (pJ)
system.mem_ctrls1.rank1.selfRefreshEnergy            0                       # Energy for self refresh per rank (pJ)
system.mem_ctrls1.rank1.totalEnergy      2362042503480                       # Total energy per rank (pJ)
system.mem_ctrls1.rank1.averagePower       465.518343                       # Core power per rank (mW)
system.mem_ctrls1.rank1.totalIdleTime               0                       # Total Idle time Per DRAM Rank
system.mem_ctrls1.rank1.memoryStateTime::IDLE 4885852645500                       # Time in different power states
system.mem_ctrls1.rank1.memoryStateTime::REF 169432120000                       # Time in different power states
system.mem_ctrls1.rank1.memoryStateTime::SREF            0                       # Time in different power states
system.mem_ctrls1.rank1.memoryStateTime::PRE_PDN            0                       # Time in different power states
system.mem_ctrls1.rank1.memoryStateTime::ACT  18720460001                       # Time in different power states
system.mem_ctrls1.rank1.memoryStateTime::ACT_PDN            0                       # Time in different power states
system.mem_ctrls1.rank0.actEnergy            41526240                       # Energy for activate commands per rank (pJ)
system.mem_ctrls1.rank0.preEnergy            22071720                       # Energy for precharge commands per rank (pJ)
system.mem_ctrls1.rank0.readEnergy          136416840                       # Energy for read commands per rank (pJ)
system.mem_ctrls1.rank0.writeEnergy                 0                       # Energy for write commands per rank (pJ)
system.mem_ctrls1.rank0.refreshEnergy    400537531680.000061                       # Energy for refresh commands per rank (pJ)
system.mem_ctrls1.rank0.actBackEnergy     82053500700                       # Energy for active background per rank (pJ)
system.mem_ctrls1.rank0.preBackEnergy    1879320153120                       # Energy for precharge background per rank (pJ)
system.mem_ctrls1.rank0.actPowerDownEnergy            0                       # Energy for active power-down per rank (pJ)
system.mem_ctrls1.rank0.prePowerDownEnergy            0                       # Energy for precharge power-down per rank (pJ)
system.mem_ctrls1.rank0.selfRefreshEnergy            0                       # Energy for self refresh per rank (pJ)
system.mem_ctrls1.rank0.totalEnergy      2362111200300                       # Total energy per rank (pJ)
system.mem_ctrls1.rank0.averagePower       465.531882                       # Core power per rank (mW)
system.mem_ctrls1.rank0.totalIdleTime               0                       # Total Idle time Per DRAM Rank
system.mem_ctrls1.rank0.memoryStateTime::IDLE 4885052046001                       # Time in different power states
system.mem_ctrls1.rank0.memoryStateTime::REF 169432120000                       # Time in different power states
system.mem_ctrls1.rank0.memoryStateTime::SREF            0                       # Time in different power states
system.mem_ctrls1.rank0.memoryStateTime::PRE_PDN            0                       # Time in different power states
system.mem_ctrls1.rank0.memoryStateTime::ACT  19521059500                       # Time in different power states
system.mem_ctrls1.rank0.memoryStateTime::ACT_PDN            0                       # Time in different power states
system.mem_ctrls1.power_state.pwrStateResidencyTicks::UNDEFINED 105270758106001                       # Cumulative time (in ticks) in various power states
system.cpu_voltage_domain.voltage                   1                       # Voltage in Volts
system.iobus.trans_dist::ReadReq                 2218                       # Transaction distribution
system.iobus.trans_dist::ReadResp                2218                       # Transaction distribution
system.iobus.trans_dist::WriteReq               22194                       # Transaction distribution
system.iobus.trans_dist::WriteResp              22194                       # Transaction distribution
system.iobus.pkt_count_system.pc.south_bridge.io_apic.int_master::system.ruby.l1_cntrl1.sequencer.pio-slave-port         1422                       # Packet count per connected master and slave (bytes)
system.iobus.pkt_count_system.pc.south_bridge.io_apic.int_master::total         1422                       # Packet count per connected master and slave (bytes)
system.iobus.pkt_count_system.ruby.l1_cntrl0.sequencer.mem-master-port::system.pc.com_1.pio           24                       # Packet count per connected master and slave (bytes)
system.iobus.pkt_count_system.ruby.l1_cntrl0.sequencer.mem-master-port::system.ruby.l1_cntrl0.sequencer.pio-slave-port        10340                       # Packet count per connected master and slave (bytes)
system.iobus.pkt_count_system.ruby.l1_cntrl0.sequencer.mem-master-port::system.ruby.l1_cntrl1.sequencer.pio-slave-port            4                       # Packet count per connected master and slave (bytes)
system.iobus.pkt_count_system.ruby.l1_cntrl0.sequencer.mem-master-port::system.ruby.l1_cntrl2.sequencer.pio-slave-port            6                       # Packet count per connected master and slave (bytes)
system.iobus.pkt_count_system.ruby.l1_cntrl0.sequencer.mem-master-port::system.ruby.l1_cntrl3.sequencer.pio-slave-port           44                       # Packet count per connected master and slave (bytes)
system.iobus.pkt_count_system.ruby.l1_cntrl0.sequencer.mem-master-port::total        10418                       # Packet count per connected master and slave (bytes)
system.iobus.pkt_count_system.ruby.l1_cntrl1.sequencer.mem-master-port::system.pc.south_bridge.ide.pio          142                       # Packet count per connected master and slave (bytes)
system.iobus.pkt_count_system.ruby.l1_cntrl1.sequencer.mem-master-port::system.pc.com_1.pio         5516                       # Packet count per connected master and slave (bytes)
system.iobus.pkt_count_system.ruby.l1_cntrl1.sequencer.mem-master-port::system.ruby.l1_cntrl0.sequencer.pio-slave-port            2                       # Packet count per connected master and slave (bytes)
system.iobus.pkt_count_system.ruby.l1_cntrl1.sequencer.mem-master-port::system.ruby.l1_cntrl1.sequencer.pio-slave-port        10308                       # Packet count per connected master and slave (bytes)
system.iobus.pkt_count_system.ruby.l1_cntrl1.sequencer.mem-master-port::system.ruby.l1_cntrl2.sequencer.pio-slave-port           10                       # Packet count per connected master and slave (bytes)
system.iobus.pkt_count_system.ruby.l1_cntrl1.sequencer.mem-master-port::system.ruby.l1_cntrl3.sequencer.pio-slave-port           14                       # Packet count per connected master and slave (bytes)
system.iobus.pkt_count_system.ruby.l1_cntrl1.sequencer.mem-master-port::total        15992                       # Packet count per connected master and slave (bytes)
system.iobus.pkt_count_system.ruby.l1_cntrl2.sequencer.mem-master-port::system.pc.south_bridge.ide.pio          170                       # Packet count per connected master and slave (bytes)
system.iobus.pkt_count_system.ruby.l1_cntrl2.sequencer.mem-master-port::system.pc.com_1.pio            6                       # Packet count per connected master and slave (bytes)
system.iobus.pkt_count_system.ruby.l1_cntrl2.sequencer.mem-master-port::system.ruby.l1_cntrl0.sequencer.pio-slave-port           10                       # Packet count per connected master and slave (bytes)
system.iobus.pkt_count_system.ruby.l1_cntrl2.sequencer.mem-master-port::system.ruby.l1_cntrl1.sequencer.pio-slave-port            4                       # Packet count per connected master and slave (bytes)
system.iobus.pkt_count_system.ruby.l1_cntrl2.sequencer.mem-master-port::system.ruby.l1_cntrl2.sequencer.pio-slave-port        10312                       # Packet count per connected master and slave (bytes)
system.iobus.pkt_count_system.ruby.l1_cntrl2.sequencer.mem-master-port::system.ruby.l1_cntrl3.sequencer.pio-slave-port           24                       # Packet count per connected master and slave (bytes)
system.iobus.pkt_count_system.ruby.l1_cntrl2.sequencer.mem-master-port::total        10526                       # Packet count per connected master and slave (bytes)
system.iobus.pkt_count_system.ruby.l1_cntrl3.sequencer.mem-master-port::system.pc.south_bridge.ide.pio          102                       # Packet count per connected master and slave (bytes)
system.iobus.pkt_count_system.ruby.l1_cntrl3.sequencer.mem-master-port::system.pc.com_1.pio           30                       # Packet count per connected master and slave (bytes)
system.iobus.pkt_count_system.ruby.l1_cntrl3.sequencer.mem-master-port::system.ruby.l1_cntrl0.sequencer.pio-slave-port            4                       # Packet count per connected master and slave (bytes)
system.iobus.pkt_count_system.ruby.l1_cntrl3.sequencer.mem-master-port::system.ruby.l1_cntrl1.sequencer.pio-slave-port            2                       # Packet count per connected master and slave (bytes)
system.iobus.pkt_count_system.ruby.l1_cntrl3.sequencer.mem-master-port::system.ruby.l1_cntrl2.sequencer.pio-slave-port           18                       # Packet count per connected master and slave (bytes)
system.iobus.pkt_count_system.ruby.l1_cntrl3.sequencer.mem-master-port::system.ruby.l1_cntrl3.sequencer.pio-slave-port        10310                       # Packet count per connected master and slave (bytes)
system.iobus.pkt_count_system.ruby.l1_cntrl3.sequencer.mem-master-port::total        10466                       # Packet count per connected master and slave (bytes)
system.iobus.pkt_count::total                   48824                       # Packet count per connected master and slave (bytes)
system.iobus.pkt_size_system.pc.south_bridge.io_apic.int_master::system.ruby.l1_cntrl1.sequencer.pio-slave-port         2844                       # Cumulative packet size per connected master and slave (bytes)
system.iobus.pkt_size_system.pc.south_bridge.io_apic.int_master::total         2844                       # Cumulative packet size per connected master and slave (bytes)
system.iobus.pkt_size_system.ruby.l1_cntrl0.sequencer.mem-master-port::system.pc.com_1.pio           12                       # Cumulative packet size per connected master and slave (bytes)
system.iobus.pkt_size_system.ruby.l1_cntrl0.sequencer.mem-master-port::system.ruby.l1_cntrl0.sequencer.pio-slave-port        20680                       # Cumulative packet size per connected master and slave (bytes)
system.iobus.pkt_size_system.ruby.l1_cntrl0.sequencer.mem-master-port::system.ruby.l1_cntrl1.sequencer.pio-slave-port            8                       # Cumulative packet size per connected master and slave (bytes)
system.iobus.pkt_size_system.ruby.l1_cntrl0.sequencer.mem-master-port::system.ruby.l1_cntrl2.sequencer.pio-slave-port           12                       # Cumulative packet size per connected master and slave (bytes)
system.iobus.pkt_size_system.ruby.l1_cntrl0.sequencer.mem-master-port::system.ruby.l1_cntrl3.sequencer.pio-slave-port           88                       # Cumulative packet size per connected master and slave (bytes)
system.iobus.pkt_size_system.ruby.l1_cntrl0.sequencer.mem-master-port::total        20800                       # Cumulative packet size per connected master and slave (bytes)
system.iobus.pkt_size_system.ruby.l1_cntrl1.sequencer.mem-master-port::system.pc.south_bridge.ide.pio           74                       # Cumulative packet size per connected master and slave (bytes)
system.iobus.pkt_size_system.ruby.l1_cntrl1.sequencer.mem-master-port::system.pc.com_1.pio         2758                       # Cumulative packet size per connected master and slave (bytes)
system.iobus.pkt_size_system.ruby.l1_cntrl1.sequencer.mem-master-port::system.ruby.l1_cntrl0.sequencer.pio-slave-port            4                       # Cumulative packet size per connected master and slave (bytes)
system.iobus.pkt_size_system.ruby.l1_cntrl1.sequencer.mem-master-port::system.ruby.l1_cntrl1.sequencer.pio-slave-port        20616                       # Cumulative packet size per connected master and slave (bytes)
system.iobus.pkt_size_system.ruby.l1_cntrl1.sequencer.mem-master-port::system.ruby.l1_cntrl2.sequencer.pio-slave-port           20                       # Cumulative packet size per connected master and slave (bytes)
system.iobus.pkt_size_system.ruby.l1_cntrl1.sequencer.mem-master-port::system.ruby.l1_cntrl3.sequencer.pio-slave-port           28                       # Cumulative packet size per connected master and slave (bytes)
system.iobus.pkt_size_system.ruby.l1_cntrl1.sequencer.mem-master-port::total        23500                       # Cumulative packet size per connected master and slave (bytes)
system.iobus.pkt_size_system.ruby.l1_cntrl2.sequencer.mem-master-port::system.pc.south_bridge.ide.pio          100                       # Cumulative packet size per connected master and slave (bytes)
system.iobus.pkt_size_system.ruby.l1_cntrl2.sequencer.mem-master-port::system.pc.com_1.pio            3                       # Cumulative packet size per connected master and slave (bytes)
system.iobus.pkt_size_system.ruby.l1_cntrl2.sequencer.mem-master-port::system.ruby.l1_cntrl0.sequencer.pio-slave-port           20                       # Cumulative packet size per connected master and slave (bytes)
system.iobus.pkt_size_system.ruby.l1_cntrl2.sequencer.mem-master-port::system.ruby.l1_cntrl1.sequencer.pio-slave-port            8                       # Cumulative packet size per connected master and slave (bytes)
system.iobus.pkt_size_system.ruby.l1_cntrl2.sequencer.mem-master-port::system.ruby.l1_cntrl2.sequencer.pio-slave-port        20624                       # Cumulative packet size per connected master and slave (bytes)
system.iobus.pkt_size_system.ruby.l1_cntrl2.sequencer.mem-master-port::system.ruby.l1_cntrl3.sequencer.pio-slave-port           48                       # Cumulative packet size per connected master and slave (bytes)
system.iobus.pkt_size_system.ruby.l1_cntrl2.sequencer.mem-master-port::total        20803                       # Cumulative packet size per connected master and slave (bytes)
system.iobus.pkt_size_system.ruby.l1_cntrl3.sequencer.mem-master-port::system.pc.south_bridge.ide.pio           60                       # Cumulative packet size per connected master and slave (bytes)
system.iobus.pkt_size_system.ruby.l1_cntrl3.sequencer.mem-master-port::system.pc.com_1.pio           15                       # Cumulative packet size per connected master and slave (bytes)
system.iobus.pkt_size_system.ruby.l1_cntrl3.sequencer.mem-master-port::system.ruby.l1_cntrl0.sequencer.pio-slave-port            8                       # Cumulative packet size per connected master and slave (bytes)
system.iobus.pkt_size_system.ruby.l1_cntrl3.sequencer.mem-master-port::system.ruby.l1_cntrl1.sequencer.pio-slave-port            4                       # Cumulative packet size per connected master and slave (bytes)
system.iobus.pkt_size_system.ruby.l1_cntrl3.sequencer.mem-master-port::system.ruby.l1_cntrl2.sequencer.pio-slave-port           36                       # Cumulative packet size per connected master and slave (bytes)
system.iobus.pkt_size_system.ruby.l1_cntrl3.sequencer.mem-master-port::system.ruby.l1_cntrl3.sequencer.pio-slave-port        20620                       # Cumulative packet size per connected master and slave (bytes)
system.iobus.pkt_size_system.ruby.l1_cntrl3.sequencer.mem-master-port::total        20743                       # Cumulative packet size per connected master and slave (bytes)
system.iobus.pkt_size::total                    88690                       # Cumulative packet size per connected master and slave (bytes)
system.iobus.reqLayer2.occupancy               344500                       # Layer occupancy (ticks)
system.iobus.reqLayer2.utilization                0.0                       # Layer utilization (%)
system.iobus.power_state.pwrStateResidencyTicks::UNDEFINED 105270758106001                       # Cumulative time (in ticks) in various power states
system.iobus.reqLayer19.occupancy            10359954                       # Layer occupancy (ticks)
system.iobus.reqLayer19.utilization               0.0                       # Layer utilization (%)
system.iobus.reqLayer17.occupancy            10348974                       # Layer occupancy (ticks)
system.iobus.reqLayer17.utilization               0.0                       # Layer utilization (%)
system.iobus.reqLayer12.occupancy             3552000                       # Layer occupancy (ticks)
system.iobus.reqLayer12.utilization               0.0                       # Layer utilization (%)
system.iobus.reqLayer18.occupancy            11777938                       # Layer occupancy (ticks)
system.iobus.reqLayer18.utilization               0.0                       # Layer utilization (%)
system.iobus.respLayer9.occupancy             7838500                       # Layer occupancy (ticks)
system.iobus.respLayer9.utilization               0.0                       # Layer utilization (%)
system.iobus.respLayer5.occupancy            12692000                       # Layer occupancy (ticks)
system.iobus.respLayer5.utilization               0.0                       # Layer utilization (%)
system.iobus.respLayer7.occupancy             7881500                       # Layer occupancy (ticks)
system.iobus.respLayer7.utilization               0.0                       # Layer utilization (%)
system.iobus.respLayer0.occupancy             1054491                       # Layer occupancy (ticks)
system.iobus.respLayer0.utilization               0.0                       # Layer utilization (%)
system.iobus.respLayer3.occupancy             7825000                       # Layer occupancy (ticks)
system.iobus.respLayer3.utilization               0.0                       # Layer utilization (%)
system.iobus.reqLayer20.occupancy            10445918                       # Layer occupancy (ticks)
system.iobus.reqLayer20.utilization               0.0                       # Layer utilization (%)

---------- End Simulation Statistics   ----------
