
---------- Begin Simulation Statistics ----------
final_tick                                 2731582000                       # Number of ticks from beginning of simulation (restored from checkpoints and never reset)
host_inst_rate                                 349752                       # Simulator instruction rate (inst/s)
host_mem_usage                                 795864                       # Number of bytes of host memory used
host_op_rate                                   625869                       # Simulator op (including micro ops) rate (op/s)
host_seconds                                     3.52                       # Real time elapsed on the host
host_tick_rate                              776790059                       # Simulator tick rate (ticks/s)
sim_freq                                 1000000000000                       # Frequency of simulated ticks
sim_insts                                     1229873                       # Number of instructions simulated
sim_ops                                       2200862                       # Number of ops (including micro ops) simulated
sim_seconds                                  0.002732                       # Number of seconds simulated
sim_ticks                                  2731582000                       # Number of ticks simulated
system.cpu0.Branches                           193477                       # Number of branches fetched
system.cpu0.committedInsts                    1229873                       # Number of instructions committed
system.cpu0.committedOps                      2200862                       # Number of ops (including micro ops) committed
system.cpu0.dtb.rdAccesses                     356654                       # TLB accesses on read requests
system.cpu0.dtb.rdMisses                          267                       # TLB misses on read requests
system.cpu0.dtb.wrAccesses                     183608                       # TLB accesses on write requests
system.cpu0.dtb.wrMisses                          100                       # TLB misses on write requests
system.cpu0.idle_fraction                           0                       # Percentage of idle cycles
system.cpu0.itb.rdAccesses                          0                       # TLB accesses on read requests
system.cpu0.itb.rdMisses                            0                       # TLB misses on read requests
system.cpu0.itb.wrAccesses                    1618365                       # TLB accesses on write requests
system.cpu0.itb.wrMisses                          262                       # TLB misses on write requests
system.cpu0.not_idle_fraction                       1                       # Percentage of non-idle cycles
system.cpu0.numCycles                         5463163                       # number of cpu cycles simulated
system.cpu0.numWorkItemsCompleted                   0                       # number of work items this cpu completed
system.cpu0.numWorkItemsStarted                     0                       # number of work items this cpu started
system.cpu0.num_busy_cycles                   5463163                       # Number of busy cycles
system.cpu0.num_cc_register_reads              816005                       # number of times the CC registers were read
system.cpu0.num_cc_register_writes             944582                       # number of times the CC registers were written
system.cpu0.num_conditional_control_insts        91204                       # number of instructions that are conditional controls
system.cpu0.num_fp_alu_accesses                128965                       # Number of float alu accesses
system.cpu0.num_fp_insts                       128965                       # number of float instructions
system.cpu0.num_fp_register_reads               99034                       # number of times the floating registers were read
system.cpu0.num_fp_register_writes              97505                       # number of times the floating registers were written
system.cpu0.num_func_calls                      85997                       # number of times a function call or return occured
system.cpu0.num_idle_cycles                         0                       # Number of idle cycles
system.cpu0.num_int_alu_accesses              2145187                       # Number of integer alu accesses
system.cpu0.num_int_insts                     2145187                       # number of integer instructions
system.cpu0.num_int_register_reads            4458662                       # number of times the integer registers were read
system.cpu0.num_int_register_writes           1742547                       # number of times the integer registers were written
system.cpu0.num_load_insts                     356633                       # Number of load instructions
system.cpu0.num_mem_refs                       540240                       # number of memory refs
system.cpu0.num_store_insts                    183607                       # Number of store instructions
system.cpu0.num_vec_alu_accesses                    0                       # Number of vector alu accesses
system.cpu0.num_vec_insts                           0                       # number of vector instructions
system.cpu0.num_vec_register_reads                  0                       # number of times the vector registers were read
system.cpu0.num_vec_register_writes                 0                       # number of times the vector registers were written
system.cpu0.op_class::No_OpClass                 3742      0.17%      0.17% # Class of executed instruction
system.cpu0.op_class::IntAlu                  1587907     72.15%     72.32% # Class of executed instruction
system.cpu0.op_class::IntMult                   13819      0.63%     72.94% # Class of executed instruction
system.cpu0.op_class::IntDiv                     2154      0.10%     73.04% # Class of executed instruction
system.cpu0.op_class::FloatAdd                  27859      1.27%     74.31% # Class of executed instruction
system.cpu0.op_class::FloatCmp                      0      0.00%     74.31% # Class of executed instruction
system.cpu0.op_class::FloatCvt                     96      0.00%     74.31% # Class of executed instruction
system.cpu0.op_class::FloatMult                     0      0.00%     74.31% # Class of executed instruction
system.cpu0.op_class::FloatMultAcc                  0      0.00%     74.31% # Class of executed instruction
system.cpu0.op_class::FloatDiv                      0      0.00%     74.31% # Class of executed instruction
system.cpu0.op_class::FloatMisc                     0      0.00%     74.31% # Class of executed instruction
system.cpu0.op_class::FloatSqrt                     0      0.00%     74.31% # Class of executed instruction
system.cpu0.op_class::SimdAdd                    2014      0.09%     74.40% # Class of executed instruction
system.cpu0.op_class::SimdAddAcc                    0      0.00%     74.40% # Class of executed instruction
system.cpu0.op_class::SimdAlu                    2610      0.12%     74.52% # Class of executed instruction
system.cpu0.op_class::SimdCmp                       6      0.00%     74.52% # Class of executed instruction
system.cpu0.op_class::SimdCvt                    3642      0.17%     74.69% # Class of executed instruction
system.cpu0.op_class::SimdMisc                   2241      0.10%     74.79% # Class of executed instruction
system.cpu0.op_class::SimdMult                      0      0.00%     74.79% # Class of executed instruction
system.cpu0.op_class::SimdMultAcc                   0      0.00%     74.79% # Class of executed instruction
system.cpu0.op_class::SimdShift                   884      0.04%     74.83% # Class of executed instruction
system.cpu0.op_class::SimdShiftAcc                  0      0.00%     74.83% # Class of executed instruction
system.cpu0.op_class::SimdDiv                       0      0.00%     74.83% # Class of executed instruction
system.cpu0.op_class::SimdSqrt                      0      0.00%     74.83% # Class of executed instruction
system.cpu0.op_class::SimdFloatAdd              13767      0.63%     75.45% # Class of executed instruction
system.cpu0.op_class::SimdFloatAlu                  0      0.00%     75.45% # Class of executed instruction
system.cpu0.op_class::SimdFloatCmp                  0      0.00%     75.45% # Class of executed instruction
system.cpu0.op_class::SimdFloatCvt                  0      0.00%     75.45% # Class of executed instruction
system.cpu0.op_class::SimdFloatDiv                  0      0.00%     75.45% # Class of executed instruction
system.cpu0.op_class::SimdFloatMisc                 0      0.00%     75.45% # Class of executed instruction
system.cpu0.op_class::SimdFloatMult                 0      0.00%     75.45% # Class of executed instruction
system.cpu0.op_class::SimdFloatMultAcc              0      0.00%     75.45% # Class of executed instruction
system.cpu0.op_class::SimdFloatSqrt                 0      0.00%     75.45% # Class of executed instruction
system.cpu0.op_class::SimdReduceAdd                 0      0.00%     75.45% # Class of executed instruction
system.cpu0.op_class::SimdReduceAlu                 0      0.00%     75.45% # Class of executed instruction
system.cpu0.op_class::SimdReduceCmp                 0      0.00%     75.45% # Class of executed instruction
system.cpu0.op_class::SimdFloatReduceAdd            0      0.00%     75.45% # Class of executed instruction
system.cpu0.op_class::SimdFloatReduceCmp            0      0.00%     75.45% # Class of executed instruction
system.cpu0.op_class::SimdAes                       0      0.00%     75.45% # Class of executed instruction
system.cpu0.op_class::SimdAesMix                    0      0.00%     75.45% # Class of executed instruction
system.cpu0.op_class::SimdSha1Hash                  0      0.00%     75.45% # Class of executed instruction
system.cpu0.op_class::SimdSha1Hash2                 0      0.00%     75.45% # Class of executed instruction
system.cpu0.op_class::SimdSha256Hash                0      0.00%     75.45% # Class of executed instruction
system.cpu0.op_class::SimdSha256Hash2               0      0.00%     75.45% # Class of executed instruction
system.cpu0.op_class::SimdShaSigma2                 0      0.00%     75.45% # Class of executed instruction
system.cpu0.op_class::SimdShaSigma3                 0      0.00%     75.45% # Class of executed instruction
system.cpu0.op_class::SimdPredAlu                   0      0.00%     75.45% # Class of executed instruction
system.cpu0.op_class::MemRead                  311075     14.13%     89.59% # Class of executed instruction
system.cpu0.op_class::MemWrite                 154113      7.00%     96.59% # Class of executed instruction
system.cpu0.op_class::FloatMemRead              45558      2.07%     98.66% # Class of executed instruction
system.cpu0.op_class::FloatMemWrite             29494      1.34%    100.00% # Class of executed instruction
system.cpu0.op_class::IprAccess                     0      0.00%    100.00% # Class of executed instruction
system.cpu0.op_class::InstPrefetch                  0      0.00%    100.00% # Class of executed instruction
system.cpu0.op_class::total                   2200981                       # Class of executed instruction
system.cpu0.workload.numSyscalls                   65                       # Number of system calls
system.cpu1.committedInsts                          0                       # Number of instructions committed
system.cpu1.committedOps                            0                       # Number of ops (including micro ops) committed
system.cpu1.dtb.rdAccesses                          0                       # TLB accesses on read requests
system.cpu1.dtb.rdMisses                            0                       # TLB misses on read requests
system.cpu1.dtb.wrAccesses                          0                       # TLB accesses on write requests
system.cpu1.dtb.wrMisses                            0                       # TLB misses on write requests
system.cpu1.idle_fraction                           1                       # Percentage of idle cycles
system.cpu1.itb.rdAccesses                          0                       # TLB accesses on read requests
system.cpu1.itb.rdMisses                            0                       # TLB misses on read requests
system.cpu1.itb.wrAccesses                          0                       # TLB accesses on write requests
system.cpu1.itb.wrMisses                            0                       # TLB misses on write requests
system.cpu1.not_idle_fraction                       0                       # Percentage of non-idle cycles
system.cpu1.numCycles                               0                       # number of cpu cycles simulated
system.cpu1.numWorkItemsCompleted                   0                       # number of work items this cpu completed
system.cpu1.numWorkItemsStarted                     0                       # number of work items this cpu started
system.cpu1.num_busy_cycles                         0                       # Number of busy cycles
system.cpu1.num_conditional_control_insts            0                       # number of instructions that are conditional controls
system.cpu1.num_fp_alu_accesses                     0                       # Number of float alu accesses
system.cpu1.num_fp_insts                            0                       # number of float instructions
system.cpu1.num_fp_register_reads                   0                       # number of times the floating registers were read
system.cpu1.num_fp_register_writes                  0                       # number of times the floating registers were written
system.cpu1.num_func_calls                          0                       # number of times a function call or return occured
system.cpu1.num_idle_cycles                         0                       # Number of idle cycles
system.cpu1.num_int_alu_accesses                    0                       # Number of integer alu accesses
system.cpu1.num_int_insts                           0                       # number of integer instructions
system.cpu1.num_int_register_reads                  0                       # number of times the integer registers were read
system.cpu1.num_int_register_writes                 0                       # number of times the integer registers were written
system.cpu1.num_load_insts                          0                       # Number of load instructions
system.cpu1.num_mem_refs                            0                       # number of memory refs
system.cpu1.num_store_insts                         0                       # Number of store instructions
system.cpu1.num_vec_alu_accesses                    0                       # Number of vector alu accesses
system.cpu1.num_vec_insts                           0                       # number of vector instructions
system.cpu1.num_vec_register_reads                  0                       # number of times the vector registers were read
system.cpu1.num_vec_register_writes                 0                       # number of times the vector registers were written
system.cpu1.op_class::No_OpClass                    0                       # Class of executed instruction
system.cpu1.op_class::IntAlu                        0                       # Class of executed instruction
system.cpu1.op_class::IntMult                       0                       # Class of executed instruction
system.cpu1.op_class::IntDiv                        0                       # Class of executed instruction
system.cpu1.op_class::FloatAdd                      0                       # Class of executed instruction
system.cpu1.op_class::FloatCmp                      0                       # Class of executed instruction
system.cpu1.op_class::FloatCvt                      0                       # Class of executed instruction
system.cpu1.op_class::FloatMult                     0                       # Class of executed instruction
system.cpu1.op_class::FloatMultAcc                  0                       # Class of executed instruction
system.cpu1.op_class::FloatDiv                      0                       # Class of executed instruction
system.cpu1.op_class::FloatMisc                     0                       # Class of executed instruction
system.cpu1.op_class::FloatSqrt                     0                       # Class of executed instruction
system.cpu1.op_class::SimdAdd                       0                       # Class of executed instruction
system.cpu1.op_class::SimdAddAcc                    0                       # Class of executed instruction
system.cpu1.op_class::SimdAlu                       0                       # Class of executed instruction
system.cpu1.op_class::SimdCmp                       0                       # Class of executed instruction
system.cpu1.op_class::SimdCvt                       0                       # Class of executed instruction
system.cpu1.op_class::SimdMisc                      0                       # Class of executed instruction
system.cpu1.op_class::SimdMult                      0                       # Class of executed instruction
system.cpu1.op_class::SimdMultAcc                   0                       # Class of executed instruction
system.cpu1.op_class::SimdShift                     0                       # Class of executed instruction
system.cpu1.op_class::SimdShiftAcc                  0                       # Class of executed instruction
system.cpu1.op_class::SimdDiv                       0                       # Class of executed instruction
system.cpu1.op_class::SimdSqrt                      0                       # Class of executed instruction
system.cpu1.op_class::SimdFloatAdd                  0                       # Class of executed instruction
system.cpu1.op_class::SimdFloatAlu                  0                       # Class of executed instruction
system.cpu1.op_class::SimdFloatCmp                  0                       # Class of executed instruction
system.cpu1.op_class::SimdFloatCvt                  0                       # Class of executed instruction
system.cpu1.op_class::SimdFloatDiv                  0                       # Class of executed instruction
system.cpu1.op_class::SimdFloatMisc                 0                       # Class of executed instruction
system.cpu1.op_class::SimdFloatMult                 0                       # Class of executed instruction
system.cpu1.op_class::SimdFloatMultAcc              0                       # Class of executed instruction
system.cpu1.op_class::SimdFloatSqrt                 0                       # Class of executed instruction
system.cpu1.op_class::SimdReduceAdd                 0                       # Class of executed instruction
system.cpu1.op_class::SimdReduceAlu                 0                       # Class of executed instruction
system.cpu1.op_class::SimdReduceCmp                 0                       # Class of executed instruction
system.cpu1.op_class::SimdFloatReduceAdd            0                       # Class of executed instruction
system.cpu1.op_class::SimdFloatReduceCmp            0                       # Class of executed instruction
system.cpu1.op_class::SimdAes                       0                       # Class of executed instruction
system.cpu1.op_class::SimdAesMix                    0                       # Class of executed instruction
system.cpu1.op_class::SimdSha1Hash                  0                       # Class of executed instruction
system.cpu1.op_class::SimdSha1Hash2                 0                       # Class of executed instruction
system.cpu1.op_class::SimdSha256Hash                0                       # Class of executed instruction
system.cpu1.op_class::SimdSha256Hash2               0                       # Class of executed instruction
system.cpu1.op_class::SimdShaSigma2                 0                       # Class of executed instruction
system.cpu1.op_class::SimdShaSigma3                 0                       # Class of executed instruction
system.cpu1.op_class::SimdPredAlu                   0                       # Class of executed instruction
system.cpu1.op_class::MemRead                       0                       # Class of executed instruction
system.cpu1.op_class::MemWrite                      0                       # Class of executed instruction
system.cpu1.op_class::FloatMemRead                  0                       # Class of executed instruction
system.cpu1.op_class::FloatMemWrite                 0                       # Class of executed instruction
system.cpu1.op_class::IprAccess                     0                       # Class of executed instruction
system.cpu1.op_class::InstPrefetch                  0                       # Class of executed instruction
system.cpu1.op_class::total                         0                       # Class of executed instruction
system.cpu2.committedInsts                          0                       # Number of instructions committed
system.cpu2.committedOps                            0                       # Number of ops (including micro ops) committed
system.cpu2.dtb.rdAccesses                          0                       # TLB accesses on read requests
system.cpu2.dtb.rdMisses                            0                       # TLB misses on read requests
system.cpu2.dtb.wrAccesses                          0                       # TLB accesses on write requests
system.cpu2.dtb.wrMisses                            0                       # TLB misses on write requests
system.cpu2.idle_fraction                           1                       # Percentage of idle cycles
system.cpu2.itb.rdAccesses                          0                       # TLB accesses on read requests
system.cpu2.itb.rdMisses                            0                       # TLB misses on read requests
system.cpu2.itb.wrAccesses                          0                       # TLB accesses on write requests
system.cpu2.itb.wrMisses                            0                       # TLB misses on write requests
system.cpu2.not_idle_fraction                       0                       # Percentage of non-idle cycles
system.cpu2.numCycles                               0                       # number of cpu cycles simulated
system.cpu2.numWorkItemsCompleted                   0                       # number of work items this cpu completed
system.cpu2.numWorkItemsStarted                     0                       # number of work items this cpu started
system.cpu2.num_busy_cycles                         0                       # Number of busy cycles
system.cpu2.num_conditional_control_insts            0                       # number of instructions that are conditional controls
system.cpu2.num_fp_alu_accesses                     0                       # Number of float alu accesses
system.cpu2.num_fp_insts                            0                       # number of float instructions
system.cpu2.num_fp_register_reads                   0                       # number of times the floating registers were read
system.cpu2.num_fp_register_writes                  0                       # number of times the floating registers were written
system.cpu2.num_func_calls                          0                       # number of times a function call or return occured
system.cpu2.num_idle_cycles                         0                       # Number of idle cycles
system.cpu2.num_int_alu_accesses                    0                       # Number of integer alu accesses
system.cpu2.num_int_insts                           0                       # number of integer instructions
system.cpu2.num_int_register_reads                  0                       # number of times the integer registers were read
system.cpu2.num_int_register_writes                 0                       # number of times the integer registers were written
system.cpu2.num_load_insts                          0                       # Number of load instructions
system.cpu2.num_mem_refs                            0                       # number of memory refs
system.cpu2.num_store_insts                         0                       # Number of store instructions
system.cpu2.num_vec_alu_accesses                    0                       # Number of vector alu accesses
system.cpu2.num_vec_insts                           0                       # number of vector instructions
system.cpu2.num_vec_register_reads                  0                       # number of times the vector registers were read
system.cpu2.num_vec_register_writes                 0                       # number of times the vector registers were written
system.cpu2.op_class::No_OpClass                    0                       # Class of executed instruction
system.cpu2.op_class::IntAlu                        0                       # Class of executed instruction
system.cpu2.op_class::IntMult                       0                       # Class of executed instruction
system.cpu2.op_class::IntDiv                        0                       # Class of executed instruction
system.cpu2.op_class::FloatAdd                      0                       # Class of executed instruction
system.cpu2.op_class::FloatCmp                      0                       # Class of executed instruction
system.cpu2.op_class::FloatCvt                      0                       # Class of executed instruction
system.cpu2.op_class::FloatMult                     0                       # Class of executed instruction
system.cpu2.op_class::FloatMultAcc                  0                       # Class of executed instruction
system.cpu2.op_class::FloatDiv                      0                       # Class of executed instruction
system.cpu2.op_class::FloatMisc                     0                       # Class of executed instruction
system.cpu2.op_class::FloatSqrt                     0                       # Class of executed instruction
system.cpu2.op_class::SimdAdd                       0                       # Class of executed instruction
system.cpu2.op_class::SimdAddAcc                    0                       # Class of executed instruction
system.cpu2.op_class::SimdAlu                       0                       # Class of executed instruction
system.cpu2.op_class::SimdCmp                       0                       # Class of executed instruction
system.cpu2.op_class::SimdCvt                       0                       # Class of executed instruction
system.cpu2.op_class::SimdMisc                      0                       # Class of executed instruction
system.cpu2.op_class::SimdMult                      0                       # Class of executed instruction
system.cpu2.op_class::SimdMultAcc                   0                       # Class of executed instruction
system.cpu2.op_class::SimdShift                     0                       # Class of executed instruction
system.cpu2.op_class::SimdShiftAcc                  0                       # Class of executed instruction
system.cpu2.op_class::SimdDiv                       0                       # Class of executed instruction
system.cpu2.op_class::SimdSqrt                      0                       # Class of executed instruction
system.cpu2.op_class::SimdFloatAdd                  0                       # Class of executed instruction
system.cpu2.op_class::SimdFloatAlu                  0                       # Class of executed instruction
system.cpu2.op_class::SimdFloatCmp                  0                       # Class of executed instruction
system.cpu2.op_class::SimdFloatCvt                  0                       # Class of executed instruction
system.cpu2.op_class::SimdFloatDiv                  0                       # Class of executed instruction
system.cpu2.op_class::SimdFloatMisc                 0                       # Class of executed instruction
system.cpu2.op_class::SimdFloatMult                 0                       # Class of executed instruction
system.cpu2.op_class::SimdFloatMultAcc              0                       # Class of executed instruction
system.cpu2.op_class::SimdFloatSqrt                 0                       # Class of executed instruction
system.cpu2.op_class::SimdReduceAdd                 0                       # Class of executed instruction
system.cpu2.op_class::SimdReduceAlu                 0                       # Class of executed instruction
system.cpu2.op_class::SimdReduceCmp                 0                       # Class of executed instruction
system.cpu2.op_class::SimdFloatReduceAdd            0                       # Class of executed instruction
system.cpu2.op_class::SimdFloatReduceCmp            0                       # Class of executed instruction
system.cpu2.op_class::SimdAes                       0                       # Class of executed instruction
system.cpu2.op_class::SimdAesMix                    0                       # Class of executed instruction
system.cpu2.op_class::SimdSha1Hash                  0                       # Class of executed instruction
system.cpu2.op_class::SimdSha1Hash2                 0                       # Class of executed instruction
system.cpu2.op_class::SimdSha256Hash                0                       # Class of executed instruction
system.cpu2.op_class::SimdSha256Hash2               0                       # Class of executed instruction
system.cpu2.op_class::SimdShaSigma2                 0                       # Class of executed instruction
system.cpu2.op_class::SimdShaSigma3                 0                       # Class of executed instruction
system.cpu2.op_class::SimdPredAlu                   0                       # Class of executed instruction
system.cpu2.op_class::MemRead                       0                       # Class of executed instruction
system.cpu2.op_class::MemWrite                      0                       # Class of executed instruction
system.cpu2.op_class::FloatMemRead                  0                       # Class of executed instruction
system.cpu2.op_class::FloatMemWrite                 0                       # Class of executed instruction
system.cpu2.op_class::IprAccess                     0                       # Class of executed instruction
system.cpu2.op_class::InstPrefetch                  0                       # Class of executed instruction
system.cpu2.op_class::total                         0                       # Class of executed instruction
system.cpu3.committedInsts                          0                       # Number of instructions committed
system.cpu3.committedOps                            0                       # Number of ops (including micro ops) committed
system.cpu3.dtb.rdAccesses                          0                       # TLB accesses on read requests
system.cpu3.dtb.rdMisses                            0                       # TLB misses on read requests
system.cpu3.dtb.wrAccesses                          0                       # TLB accesses on write requests
system.cpu3.dtb.wrMisses                            0                       # TLB misses on write requests
system.cpu3.idle_fraction                           1                       # Percentage of idle cycles
system.cpu3.itb.rdAccesses                          0                       # TLB accesses on read requests
system.cpu3.itb.rdMisses                            0                       # TLB misses on read requests
system.cpu3.itb.wrAccesses                          0                       # TLB accesses on write requests
system.cpu3.itb.wrMisses                            0                       # TLB misses on write requests
system.cpu3.not_idle_fraction                       0                       # Percentage of non-idle cycles
system.cpu3.numCycles                               0                       # number of cpu cycles simulated
system.cpu3.numWorkItemsCompleted                   0                       # number of work items this cpu completed
system.cpu3.numWorkItemsStarted                     0                       # number of work items this cpu started
system.cpu3.num_busy_cycles                         0                       # Number of busy cycles
system.cpu3.num_conditional_control_insts            0                       # number of instructions that are conditional controls
system.cpu3.num_fp_alu_accesses                     0                       # Number of float alu accesses
system.cpu3.num_fp_insts                            0                       # number of float instructions
system.cpu3.num_fp_register_reads                   0                       # number of times the floating registers were read
system.cpu3.num_fp_register_writes                  0                       # number of times the floating registers were written
system.cpu3.num_func_calls                          0                       # number of times a function call or return occured
system.cpu3.num_idle_cycles                         0                       # Number of idle cycles
system.cpu3.num_int_alu_accesses                    0                       # Number of integer alu accesses
system.cpu3.num_int_insts                           0                       # number of integer instructions
system.cpu3.num_int_register_reads                  0                       # number of times the integer registers were read
system.cpu3.num_int_register_writes                 0                       # number of times the integer registers were written
system.cpu3.num_load_insts                          0                       # Number of load instructions
system.cpu3.num_mem_refs                            0                       # number of memory refs
system.cpu3.num_store_insts                         0                       # Number of store instructions
system.cpu3.num_vec_alu_accesses                    0                       # Number of vector alu accesses
system.cpu3.num_vec_insts                           0                       # number of vector instructions
system.cpu3.num_vec_register_reads                  0                       # number of times the vector registers were read
system.cpu3.num_vec_register_writes                 0                       # number of times the vector registers were written
system.cpu3.op_class::No_OpClass                    0                       # Class of executed instruction
system.cpu3.op_class::IntAlu                        0                       # Class of executed instruction
system.cpu3.op_class::IntMult                       0                       # Class of executed instruction
system.cpu3.op_class::IntDiv                        0                       # Class of executed instruction
system.cpu3.op_class::FloatAdd                      0                       # Class of executed instruction
system.cpu3.op_class::FloatCmp                      0                       # Class of executed instruction
system.cpu3.op_class::FloatCvt                      0                       # Class of executed instruction
system.cpu3.op_class::FloatMult                     0                       # Class of executed instruction
system.cpu3.op_class::FloatMultAcc                  0                       # Class of executed instruction
system.cpu3.op_class::FloatDiv                      0                       # Class of executed instruction
system.cpu3.op_class::FloatMisc                     0                       # Class of executed instruction
system.cpu3.op_class::FloatSqrt                     0                       # Class of executed instruction
system.cpu3.op_class::SimdAdd                       0                       # Class of executed instruction
system.cpu3.op_class::SimdAddAcc                    0                       # Class of executed instruction
system.cpu3.op_class::SimdAlu                       0                       # Class of executed instruction
system.cpu3.op_class::SimdCmp                       0                       # Class of executed instruction
system.cpu3.op_class::SimdCvt                       0                       # Class of executed instruction
system.cpu3.op_class::SimdMisc                      0                       # Class of executed instruction
system.cpu3.op_class::SimdMult                      0                       # Class of executed instruction
system.cpu3.op_class::SimdMultAcc                   0                       # Class of executed instruction
system.cpu3.op_class::SimdShift                     0                       # Class of executed instruction
system.cpu3.op_class::SimdShiftAcc                  0                       # Class of executed instruction
system.cpu3.op_class::SimdDiv                       0                       # Class of executed instruction
system.cpu3.op_class::SimdSqrt                      0                       # Class of executed instruction
system.cpu3.op_class::SimdFloatAdd                  0                       # Class of executed instruction
system.cpu3.op_class::SimdFloatAlu                  0                       # Class of executed instruction
system.cpu3.op_class::SimdFloatCmp                  0                       # Class of executed instruction
system.cpu3.op_class::SimdFloatCvt                  0                       # Class of executed instruction
system.cpu3.op_class::SimdFloatDiv                  0                       # Class of executed instruction
system.cpu3.op_class::SimdFloatMisc                 0                       # Class of executed instruction
system.cpu3.op_class::SimdFloatMult                 0                       # Class of executed instruction
system.cpu3.op_class::SimdFloatMultAcc              0                       # Class of executed instruction
system.cpu3.op_class::SimdFloatSqrt                 0                       # Class of executed instruction
system.cpu3.op_class::SimdReduceAdd                 0                       # Class of executed instruction
system.cpu3.op_class::SimdReduceAlu                 0                       # Class of executed instruction
system.cpu3.op_class::SimdReduceCmp                 0                       # Class of executed instruction
system.cpu3.op_class::SimdFloatReduceAdd            0                       # Class of executed instruction
system.cpu3.op_class::SimdFloatReduceCmp            0                       # Class of executed instruction
system.cpu3.op_class::SimdAes                       0                       # Class of executed instruction
system.cpu3.op_class::SimdAesMix                    0                       # Class of executed instruction
system.cpu3.op_class::SimdSha1Hash                  0                       # Class of executed instruction
system.cpu3.op_class::SimdSha1Hash2                 0                       # Class of executed instruction
system.cpu3.op_class::SimdSha256Hash                0                       # Class of executed instruction
system.cpu3.op_class::SimdSha256Hash2               0                       # Class of executed instruction
system.cpu3.op_class::SimdShaSigma2                 0                       # Class of executed instruction
system.cpu3.op_class::SimdShaSigma3                 0                       # Class of executed instruction
system.cpu3.op_class::SimdPredAlu                   0                       # Class of executed instruction
system.cpu3.op_class::MemRead                       0                       # Class of executed instruction
system.cpu3.op_class::MemWrite                      0                       # Class of executed instruction
system.cpu3.op_class::FloatMemRead                  0                       # Class of executed instruction
system.cpu3.op_class::FloatMemWrite                 0                       # Class of executed instruction
system.cpu3.op_class::IprAccess                     0                       # Class of executed instruction
system.cpu3.op_class::InstPrefetch                  0                       # Class of executed instruction
system.cpu3.op_class::total                         0                       # Class of executed instruction
system.ruby.Directory_Controller.I.deallocTBE |        1415     24.72%     24.72% |        1469     25.66%     50.38% |        1424     24.88%     75.26% |        1416     24.74%    100.00%
system.ruby.Directory_Controller.I.deallocTBE::total         5724                      
system.ruby.Directory_Controller.I_GetML1C1_0.Progress |         619     24.91%     24.91% |         630     25.35%     50.26% |         616     24.79%     75.05% |         620     24.95%    100.00%
system.ruby.Directory_Controller.I_GetML1C1_0.Progress::total         2485                      
system.ruby.Directory_Controller.I_GetSL1C1_0.Progress |        1052     24.68%     24.68% |        1095     25.69%     50.36% |        1064     24.96%     75.32% |        1052     24.68%    100.00%
system.ruby.Directory_Controller.I_GetSL1C1_0.Progress::total         4263                      
system.ruby.Directory_Controller.M.deallocTBE |         645     24.93%     24.93% |         656     25.36%     50.29% |         640     24.74%     75.03% |         646     24.97%    100.00%
system.ruby.Directory_Controller.M.deallocTBE::total         2587                      
system.ruby.Directory_Controller.M_PutML1C1_0.Progress |         392     24.87%     24.87% |         403     25.57%     50.44% |         386     24.49%     74.94% |         395     25.06%    100.00%
system.ruby.Directory_Controller.M_PutML1C1_0.Progress::total         1576                      
system.ruby.Directory_Controller.Progress |        2089     24.79%     24.79% |        2154     25.56%     50.36% |        2090     24.80%     75.16% |        2093     24.84%    100.00%
system.ruby.Directory_Controller.Progress::total         8426                      
system.ruby.Directory_Controller.S.deallocTBE |        1052     24.68%     24.68% |        1095     25.69%     50.36% |        1064     24.96%     75.32% |        1052     24.68%    100.00%
system.ruby.Directory_Controller.S.deallocTBE::total         4263                      
system.ruby.Directory_Controller.S_GetML1C1_1.Progress |          26     25.49%     25.49% |          26     25.49%     50.98% |          24     23.53%     74.51% |          26     25.49%    100.00%
system.ruby.Directory_Controller.S_GetML1C1_1.Progress::total          102                      
system.ruby.Directory_Controller.deallocTBE |        3112     24.75%     24.75% |        3220     25.61%     50.36% |        3128     24.88%     75.23% |        3114     24.77%    100.00%
system.ruby.Directory_Controller.deallocTBE::total        12574                      
system.ruby.IFETCH.hit_latency_hist_seqr::bucket_size            1                      
system.ruby.IFETCH.hit_latency_hist_seqr::max_bucket            9                      
system.ruby.IFETCH.hit_latency_hist_seqr::samples      1617006                      
system.ruby.IFETCH.hit_latency_hist_seqr |     1617006    100.00%    100.00% |           0      0.00%    100.00% |           0      0.00%    100.00% |           0      0.00%    100.00% |           0      0.00%    100.00% |           0      0.00%    100.00% |           0      0.00%    100.00% |           0      0.00%    100.00% |           0      0.00%    100.00% |           0      0.00%    100.00%
system.ruby.IFETCH.hit_latency_hist_seqr::total      1617006                      
system.ruby.IFETCH.latency_hist_seqr::bucket_size           32                      
system.ruby.IFETCH.latency_hist_seqr::max_bucket          319                      
system.ruby.IFETCH.latency_hist_seqr::samples      1618295                      
system.ruby.IFETCH.latency_hist_seqr::mean     0.000103                      
system.ruby.IFETCH.latency_hist_seqr::stdev     0.131277                      
system.ruby.IFETCH.latency_hist_seqr     |     1618294    100.00%    100.00% |           0      0.00%    100.00% |           0      0.00%    100.00% |           0      0.00%    100.00% |           0      0.00%    100.00% |           1      0.00%    100.00% |           0      0.00%    100.00% |           0      0.00%    100.00% |           0      0.00%    100.00% |           0      0.00%    100.00%
system.ruby.IFETCH.latency_hist_seqr::total      1618295                      
system.ruby.IFETCH.miss_latency_hist_seqr::bucket_size           32                      
system.ruby.IFETCH.miss_latency_hist_seqr::max_bucket          319                      
system.ruby.IFETCH.miss_latency_hist_seqr::samples         1289                      
system.ruby.IFETCH.miss_latency_hist_seqr::mean     0.129558                      
system.ruby.IFETCH.miss_latency_hist_seqr::stdev     4.651468                      
system.ruby.IFETCH.miss_latency_hist_seqr |        1288     99.92%     99.92% |           0      0.00%     99.92% |           0      0.00%     99.92% |           0      0.00%     99.92% |           0      0.00%     99.92% |           1      0.08%    100.00% |           0      0.00%    100.00% |           0      0.00%    100.00% |           0      0.00%    100.00% |           0      0.00%    100.00%
system.ruby.IFETCH.miss_latency_hist_seqr::total         1289                      
system.ruby.L1Cache_Controller.I.allocI_load |        4263    100.00%    100.00% |           0      0.00%    100.00% |           0      0.00%    100.00% |           0      0.00%    100.00%
system.ruby.L1Cache_Controller.I.allocI_load::total         4263                      
system.ruby.L1Cache_Controller.I.allocI_store |        2485    100.00%    100.00% |           0      0.00%    100.00% |           0      0.00%    100.00% |           0      0.00%    100.00%
system.ruby.L1Cache_Controller.I.allocI_store::total         2485                      
system.ruby.L1Cache_Controller.I.deallocfwdfrom_in |        5724    100.00%    100.00% |           0      0.00%    100.00% |           0      0.00%    100.00% |           0      0.00%    100.00%
system.ruby.L1Cache_Controller.I.deallocfwdfrom_in::total         5724                      
system.ruby.L1Cache_Controller.M.MloadMEvent |      263618    100.00%    100.00% |           0      0.00%    100.00% |           0      0.00%    100.00% |           0      0.00%    100.00%
system.ruby.L1Cache_Controller.M.MloadMEvent::total       263618                      
system.ruby.L1Cache_Controller.M.MstoreMEvent |      181409    100.00%    100.00% |           0      0.00%    100.00% |           0      0.00%    100.00% |           0      0.00%    100.00%
system.ruby.L1Cache_Controller.M.MstoreMEvent::total       181409                      
system.ruby.L1Cache_Controller.M.allocTBE |        1576    100.00%    100.00% |           0      0.00%    100.00% |           0      0.00%    100.00% |           0      0.00%    100.00%
system.ruby.L1Cache_Controller.M.allocTBE::total         1576                      
system.ruby.L1Cache_Controller.M.externalstoreMrespfrom_in |        2587    100.00%    100.00% |           0      0.00%    100.00% |           0      0.00%    100.00% |           0      0.00%    100.00%
system.ruby.L1Cache_Controller.M.externalstoreMrespfrom_in::total         2587                      
system.ruby.L1Cache_Controller.M_evict.Progress |        1576    100.00%    100.00% |           0      0.00%    100.00% |           0      0.00%    100.00% |           0      0.00%    100.00%
system.ruby.L1Cache_Controller.M_evict.Progress::total         1576                      
system.ruby.L1Cache_Controller.M_evict.Stallmandatory_in |        7488    100.00%    100.00% |           0      0.00%    100.00% |           0      0.00%    100.00% |           0      0.00%    100.00%
system.ruby.L1Cache_Controller.M_evict.Stallmandatory_in::total         7488                      
system.ruby.L1Cache_Controller.MloadMEvent |      263618    100.00%    100.00% |           0      0.00%    100.00% |           0      0.00%    100.00% |           0      0.00%    100.00%
system.ruby.L1Cache_Controller.MloadMEvent::total       263618                      
system.ruby.L1Cache_Controller.MstoreMEvent |      181409    100.00%    100.00% |           0      0.00%    100.00% |           0      0.00%    100.00% |           0      0.00%    100.00%
system.ruby.L1Cache_Controller.MstoreMEvent::total       181409                      
system.ruby.L1Cache_Controller.Progress  |        5826    100.00%    100.00% |           0      0.00%    100.00% |           0      0.00%    100.00% |           0      0.00%    100.00%
system.ruby.L1Cache_Controller.Progress::total         5826                      
system.ruby.L1Cache_Controller.S.SloadSEvent |     1706561    100.00%    100.00% |           0      0.00%    100.00% |           0      0.00%    100.00% |           0      0.00%    100.00%
system.ruby.L1Cache_Controller.S.SloadSEvent::total      1706561                      
system.ruby.L1Cache_Controller.S.allocTBE |        4250    100.00%    100.00% |           0      0.00%    100.00% |           0      0.00%    100.00% |           0      0.00%    100.00%
system.ruby.L1Cache_Controller.S.allocTBE::total         4250                      
system.ruby.L1Cache_Controller.S.externalloadSrespfrom_in |        4263    100.00%    100.00% |           0      0.00%    100.00% |           0      0.00%    100.00% |           0      0.00%    100.00%
system.ruby.L1Cache_Controller.S.externalloadSrespfrom_in::total         4263                      
system.ruby.L1Cache_Controller.S_evict.Progress |        4148    100.00%    100.00% |           0      0.00%    100.00% |           0      0.00%    100.00% |           0      0.00%    100.00%
system.ruby.L1Cache_Controller.S_evict.Progress::total         4148                      
system.ruby.L1Cache_Controller.S_evict.Stallmandatory_in |       11421    100.00%    100.00% |           0      0.00%    100.00% |           0      0.00%    100.00% |           0      0.00%    100.00%
system.ruby.L1Cache_Controller.S_evict.Stallmandatory_in::total        11421                      
system.ruby.L1Cache_Controller.S_store.Progress |         102    100.00%    100.00% |           0      0.00%    100.00% |           0      0.00%    100.00% |           0      0.00%    100.00%
system.ruby.L1Cache_Controller.S_store.Progress::total          102                      
system.ruby.L1Cache_Controller.SloadSEvent |     1706561    100.00%    100.00% |           0      0.00%    100.00% |           0      0.00%    100.00% |           0      0.00%    100.00%
system.ruby.L1Cache_Controller.SloadSEvent::total      1706561                      
system.ruby.L1Cache_Controller.Stallmandatory_in |       18909    100.00%    100.00% |           0      0.00%    100.00% |           0      0.00%    100.00% |           0      0.00%    100.00%
system.ruby.L1Cache_Controller.Stallmandatory_in::total        18909                      
system.ruby.L1Cache_Controller.allocI_load |        4263    100.00%    100.00% |           0      0.00%    100.00% |           0      0.00%    100.00% |           0      0.00%    100.00%
system.ruby.L1Cache_Controller.allocI_load::total         4263                      
system.ruby.L1Cache_Controller.allocI_store |        2485    100.00%    100.00% |           0      0.00%    100.00% |           0      0.00%    100.00% |           0      0.00%    100.00%
system.ruby.L1Cache_Controller.allocI_store::total         2485                      
system.ruby.L1Cache_Controller.allocTBE  |        5826    100.00%    100.00% |           0      0.00%    100.00% |           0      0.00%    100.00% |           0      0.00%    100.00%
system.ruby.L1Cache_Controller.allocTBE::total         5826                      
system.ruby.L1Cache_Controller.deallocfwdfrom_in |        5724    100.00%    100.00% |           0      0.00%    100.00% |           0      0.00%    100.00% |           0      0.00%    100.00%
system.ruby.L1Cache_Controller.deallocfwdfrom_in::total         5724                      
system.ruby.L1Cache_Controller.externalloadSrespfrom_in |        4263    100.00%    100.00% |           0      0.00%    100.00% |           0      0.00%    100.00% |           0      0.00%    100.00%
system.ruby.L1Cache_Controller.externalloadSrespfrom_in::total         4263                      
system.ruby.L1Cache_Controller.externalstoreMrespfrom_in |        2587    100.00%    100.00% |           0      0.00%    100.00% |           0      0.00%    100.00% |           0      0.00%    100.00%
system.ruby.L1Cache_Controller.externalstoreMrespfrom_in::total         2587                      
system.ruby.LD.hit_latency_hist_seqr::bucket_size            1                      
system.ruby.LD.hit_latency_hist_seqr::max_bucket            9                      
system.ruby.LD.hit_latency_hist_seqr::samples       353173                      
system.ruby.LD.hit_latency_hist_seqr     |      353173    100.00%    100.00% |           0      0.00%    100.00% |           0      0.00%    100.00% |           0      0.00%    100.00% |           0      0.00%    100.00% |           0      0.00%    100.00% |           0      0.00%    100.00% |           0      0.00%    100.00% |           0      0.00%    100.00% |           0      0.00%    100.00%
system.ruby.LD.hit_latency_hist_seqr::total       353173                      
system.ruby.LD.latency_hist_seqr::bucket_size            1                      
system.ruby.LD.latency_hist_seqr::max_bucket            9                      
system.ruby.LD.latency_hist_seqr::samples       356147                      
system.ruby.LD.latency_hist_seqr         |      356147    100.00%    100.00% |           0      0.00%    100.00% |           0      0.00%    100.00% |           0      0.00%    100.00% |           0      0.00%    100.00% |           0      0.00%    100.00% |           0      0.00%    100.00% |           0      0.00%    100.00% |           0      0.00%    100.00% |           0      0.00%    100.00%
system.ruby.LD.latency_hist_seqr::total        356147                      
system.ruby.LD.miss_latency_hist_seqr::bucket_size            1                      
system.ruby.LD.miss_latency_hist_seqr::max_bucket            9                      
system.ruby.LD.miss_latency_hist_seqr::samples         2974                      
system.ruby.LD.miss_latency_hist_seqr    |        2974    100.00%    100.00% |           0      0.00%    100.00% |           0      0.00%    100.00% |           0      0.00%    100.00% |           0      0.00%    100.00% |           0      0.00%    100.00% |           0      0.00%    100.00% |           0      0.00%    100.00% |           0      0.00%    100.00% |           0      0.00%    100.00%
system.ruby.LD.miss_latency_hist_seqr::total         2974                      
system.ruby.Locked_RMW_Read.hit_latency_hist_seqr::bucket_size            1                      
system.ruby.Locked_RMW_Read.hit_latency_hist_seqr::max_bucket            9                      
system.ruby.Locked_RMW_Read.hit_latency_hist_seqr::samples           14                      
system.ruby.Locked_RMW_Read.hit_latency_hist_seqr |          14    100.00%    100.00% |           0      0.00%    100.00% |           0      0.00%    100.00% |           0      0.00%    100.00% |           0      0.00%    100.00% |           0      0.00%    100.00% |           0      0.00%    100.00% |           0      0.00%    100.00% |           0      0.00%    100.00% |           0      0.00%    100.00%
system.ruby.Locked_RMW_Read.hit_latency_hist_seqr::total           14                      
system.ruby.Locked_RMW_Read.latency_hist_seqr::bucket_size            1                      
system.ruby.Locked_RMW_Read.latency_hist_seqr::max_bucket            9                      
system.ruby.Locked_RMW_Read.latency_hist_seqr::samples           16                      
system.ruby.Locked_RMW_Read.latency_hist_seqr |          16    100.00%    100.00% |           0      0.00%    100.00% |           0      0.00%    100.00% |           0      0.00%    100.00% |           0      0.00%    100.00% |           0      0.00%    100.00% |           0      0.00%    100.00% |           0      0.00%    100.00% |           0      0.00%    100.00% |           0      0.00%    100.00%
system.ruby.Locked_RMW_Read.latency_hist_seqr::total           16                      
system.ruby.Locked_RMW_Read.miss_latency_hist_seqr::bucket_size            1                      
system.ruby.Locked_RMW_Read.miss_latency_hist_seqr::max_bucket            9                      
system.ruby.Locked_RMW_Read.miss_latency_hist_seqr::samples            2                      
system.ruby.Locked_RMW_Read.miss_latency_hist_seqr |           2    100.00%    100.00% |           0      0.00%    100.00% |           0      0.00%    100.00% |           0      0.00%    100.00% |           0      0.00%    100.00% |           0      0.00%    100.00% |           0      0.00%    100.00% |           0      0.00%    100.00% |           0      0.00%    100.00% |           0      0.00%    100.00%
system.ruby.Locked_RMW_Read.miss_latency_hist_seqr::total            2                      
system.ruby.Locked_RMW_Write.hit_latency_hist_seqr::bucket_size            1                      
system.ruby.Locked_RMW_Write.hit_latency_hist_seqr::max_bucket            9                      
system.ruby.Locked_RMW_Write.hit_latency_hist_seqr::samples           16                      
system.ruby.Locked_RMW_Write.hit_latency_hist_seqr |          16    100.00%    100.00% |           0      0.00%    100.00% |           0      0.00%    100.00% |           0      0.00%    100.00% |           0      0.00%    100.00% |           0      0.00%    100.00% |           0      0.00%    100.00% |           0      0.00%    100.00% |           0      0.00%    100.00% |           0      0.00%    100.00%
system.ruby.Locked_RMW_Write.hit_latency_hist_seqr::total           16                      
system.ruby.Locked_RMW_Write.latency_hist_seqr::bucket_size            1                      
system.ruby.Locked_RMW_Write.latency_hist_seqr::max_bucket            9                      
system.ruby.Locked_RMW_Write.latency_hist_seqr::samples           16                      
system.ruby.Locked_RMW_Write.latency_hist_seqr |          16    100.00%    100.00% |           0      0.00%    100.00% |           0      0.00%    100.00% |           0      0.00%    100.00% |           0      0.00%    100.00% |           0      0.00%    100.00% |           0      0.00%    100.00% |           0      0.00%    100.00% |           0      0.00%    100.00% |           0      0.00%    100.00%
system.ruby.Locked_RMW_Write.latency_hist_seqr::total           16                      
system.ruby.RMW_Read.hit_latency_hist_seqr::bucket_size            1                      
system.ruby.RMW_Read.hit_latency_hist_seqr::max_bucket            9                      
system.ruby.RMW_Read.hit_latency_hist_seqr::samples          364                      
system.ruby.RMW_Read.hit_latency_hist_seqr |         364    100.00%    100.00% |           0      0.00%    100.00% |           0      0.00%    100.00% |           0      0.00%    100.00% |           0      0.00%    100.00% |           0      0.00%    100.00% |           0      0.00%    100.00% |           0      0.00%    100.00% |           0      0.00%    100.00% |           0      0.00%    100.00%
system.ruby.RMW_Read.hit_latency_hist_seqr::total          364                      
system.ruby.RMW_Read.latency_hist_seqr::bucket_size            1                      
system.ruby.RMW_Read.latency_hist_seqr::max_bucket            9                      
system.ruby.RMW_Read.latency_hist_seqr::samples          417                      
system.ruby.RMW_Read.latency_hist_seqr   |         417    100.00%    100.00% |           0      0.00%    100.00% |           0      0.00%    100.00% |           0      0.00%    100.00% |           0      0.00%    100.00% |           0      0.00%    100.00% |           0      0.00%    100.00% |           0      0.00%    100.00% |           0      0.00%    100.00% |           0      0.00%    100.00%
system.ruby.RMW_Read.latency_hist_seqr::total          417                      
system.ruby.RMW_Read.miss_latency_hist_seqr::bucket_size            1                      
system.ruby.RMW_Read.miss_latency_hist_seqr::max_bucket            9                      
system.ruby.RMW_Read.miss_latency_hist_seqr::samples           53                      
system.ruby.RMW_Read.miss_latency_hist_seqr |          53    100.00%    100.00% |           0      0.00%    100.00% |           0      0.00%    100.00% |           0      0.00%    100.00% |           0      0.00%    100.00% |           0      0.00%    100.00% |           0      0.00%    100.00% |           0      0.00%    100.00% |           0      0.00%    100.00% |           0      0.00%    100.00%
system.ruby.RMW_Read.miss_latency_hist_seqr::total           53                      
system.ruby.ST.hit_latency_hist_seqr::bucket_size            1                      
system.ruby.ST.hit_latency_hist_seqr::max_bucket            9                      
system.ruby.ST.hit_latency_hist_seqr::samples       181015                      
system.ruby.ST.hit_latency_hist_seqr     |      181015    100.00%    100.00% |           0      0.00%    100.00% |           0      0.00%    100.00% |           0      0.00%    100.00% |           0      0.00%    100.00% |           0      0.00%    100.00% |           0      0.00%    100.00% |           0      0.00%    100.00% |           0      0.00%    100.00% |           0      0.00%    100.00%
system.ruby.ST.hit_latency_hist_seqr::total       181015                      
system.ruby.ST.latency_hist_seqr::bucket_size            1                      
system.ruby.ST.latency_hist_seqr::max_bucket            9                      
system.ruby.ST.latency_hist_seqr::samples       183547                      
system.ruby.ST.latency_hist_seqr         |      183547    100.00%    100.00% |           0      0.00%    100.00% |           0      0.00%    100.00% |           0      0.00%    100.00% |           0      0.00%    100.00% |           0      0.00%    100.00% |           0      0.00%    100.00% |           0      0.00%    100.00% |           0      0.00%    100.00% |           0      0.00%    100.00%
system.ruby.ST.latency_hist_seqr::total        183547                      
system.ruby.ST.miss_latency_hist_seqr::bucket_size            1                      
system.ruby.ST.miss_latency_hist_seqr::max_bucket            9                      
system.ruby.ST.miss_latency_hist_seqr::samples         2532                      
system.ruby.ST.miss_latency_hist_seqr    |        2532    100.00%    100.00% |           0      0.00%    100.00% |           0      0.00%    100.00% |           0      0.00%    100.00% |           0      0.00%    100.00% |           0      0.00%    100.00% |           0      0.00%    100.00% |           0      0.00%    100.00% |           0      0.00%    100.00% |           0      0.00%    100.00%
system.ruby.ST.miss_latency_hist_seqr::total         2532                      
system.ruby.dir_cntrl0.fwdFrom.avg_buf_msgs     0.001554                       # Average number of messages in buffer
system.ruby.dir_cntrl0.fwdFrom.avg_stall_time  2970.138733                       # Average number of cycles messages are stalled in this MB
system.ruby.dir_cntrl0.reqTo.avg_buf_msgs     0.000570                       # Average number of messages in buffer
system.ruby.dir_cntrl0.reqTo.avg_stall_time  3013.910803                       # Average number of cycles messages are stalled in this MB
system.ruby.dir_cntrl0.requestToMemory.avg_buf_msgs     0.000382                       # Average number of messages in buffer
system.ruby.dir_cntrl0.requestToMemory.avg_stall_time   499.926599                       # Average number of cycles messages are stalled in this MB
system.ruby.dir_cntrl0.respFrom.avg_buf_msgs     0.001864                       # Average number of messages in buffer
system.ruby.dir_cntrl0.respFrom.avg_stall_time  2999.497544                       # Average number of cycles messages are stalled in this MB
system.ruby.dir_cntrl0.responseFromMemory.avg_buf_msgs     0.000668                       # Average number of messages in buffer
system.ruby.dir_cntrl0.responseFromMemory.avg_stall_time   499.916806                       # Average number of cycles messages are stalled in this MB
system.ruby.dir_cntrl1.fwdFrom.avg_buf_msgs     0.001613                       # Average number of messages in buffer
system.ruby.dir_cntrl1.fwdFrom.avg_stall_time  2969.919080                       # Average number of cycles messages are stalled in this MB
system.ruby.dir_cntrl1.reqTo.avg_buf_msgs     0.000589                       # Average number of messages in buffer
system.ruby.dir_cntrl1.reqTo.avg_stall_time  4021.655583                       # Average number of cycles messages are stalled in this MB
system.ruby.dir_cntrl1.requestToMemory.avg_buf_msgs     0.000394                       # Average number of messages in buffer
system.ruby.dir_cntrl1.requestToMemory.avg_stall_time   499.940602                       # Average number of cycles messages are stalled in this MB
system.ruby.dir_cntrl1.respFrom.avg_buf_msgs     0.001923                       # Average number of messages in buffer
system.ruby.dir_cntrl1.respFrom.avg_stall_time  2999.581561                       # Average number of cycles messages are stalled in this MB
system.ruby.dir_cntrl1.responseFromMemory.avg_buf_msgs     0.000689                       # Average number of messages in buffer
system.ruby.dir_cntrl1.responseFromMemory.avg_stall_time   499.930809                       # Average number of cycles messages are stalled in this MB
system.ruby.dir_cntrl2.fwdFrom.avg_buf_msgs     0.001564                       # Average number of messages in buffer
system.ruby.dir_cntrl2.fwdFrom.avg_stall_time  2988.013539                       # Average number of cycles messages are stalled in this MB
system.ruby.dir_cntrl2.reqTo.avg_buf_msgs     0.000573                       # Average number of messages in buffer
system.ruby.dir_cntrl2.reqTo.avg_stall_time  4021.189919                       # Average number of cycles messages are stalled in this MB
system.ruby.dir_cntrl2.requestToMemory.avg_buf_msgs     0.000383                       # Average number of messages in buffer
system.ruby.dir_cntrl2.requestToMemory.avg_stall_time   499.999085                       # Average number of cycles messages are stalled in this MB
system.ruby.dir_cntrl2.respFrom.avg_buf_msgs     0.001871                       # Average number of messages in buffer
system.ruby.dir_cntrl2.respFrom.avg_stall_time  2999.923121                       # Average number of cycles messages are stalled in this MB
system.ruby.dir_cntrl2.responseFromMemory.avg_buf_msgs     0.000668                       # Average number of messages in buffer
system.ruby.dir_cntrl2.responseFromMemory.avg_stall_time   499.987736                       # Average number of cycles messages are stalled in this MB
system.ruby.dir_cntrl3.fwdFrom.avg_buf_msgs     0.001555                       # Average number of messages in buffer
system.ruby.dir_cntrl3.fwdFrom.avg_stall_time  2987.840014                       # Average number of cycles messages are stalled in this MB
system.ruby.dir_cntrl3.reqTo.avg_buf_msgs     0.000570                       # Average number of messages in buffer
system.ruby.dir_cntrl3.reqTo.avg_stall_time  5021.237693                       # Average number of cycles messages are stalled in this MB
system.ruby.dir_cntrl3.requestToMemory.avg_buf_msgs     0.000383                       # Average number of messages in buffer
system.ruby.dir_cntrl3.requestToMemory.avg_stall_time   499.954605                       # Average number of cycles messages are stalled in this MB
system.ruby.dir_cntrl3.respFrom.avg_buf_msgs     0.001865                       # Average number of messages in buffer
system.ruby.dir_cntrl3.respFrom.avg_stall_time  2999.665578                       # Average number of cycles messages are stalled in this MB
system.ruby.dir_cntrl3.responseFromMemory.avg_buf_msgs     0.000672                       # Average number of messages in buffer
system.ruby.dir_cntrl3.responseFromMemory.avg_stall_time   499.944812                       # Average number of cycles messages are stalled in this MB
system.ruby.hit_latency_hist_seqr::bucket_size            1                      
system.ruby.hit_latency_hist_seqr::max_bucket            9                      
system.ruby.hit_latency_hist_seqr::samples      2151588                      
system.ruby.hit_latency_hist_seqr        |     2151588    100.00%    100.00% |           0      0.00%    100.00% |           0      0.00%    100.00% |           0      0.00%    100.00% |           0      0.00%    100.00% |           0      0.00%    100.00% |           0      0.00%    100.00% |           0      0.00%    100.00% |           0      0.00%    100.00% |           0      0.00%    100.00%
system.ruby.hit_latency_hist_seqr::total      2151588                      
system.ruby.l1_cntrl0.cache.demand_accesses            0                       # Number of cache demand accesses
system.ruby.l1_cntrl0.cache.demand_hits             0                       # Number of cache demand hits
system.ruby.l1_cntrl0.cache.demand_misses            0                       # Number of cache demand misses
system.ruby.l1_cntrl0.fully_busy_cycles             7                       # cycles for which number of transistions == max transitions
system.ruby.l1_cntrl0.fwdFrom.avg_buf_msgs     0.001048                       # Average number of messages in buffer
system.ruby.l1_cntrl0.fwdFrom.avg_stall_time  6481.123301                       # Average number of cycles messages are stalled in this MB
system.ruby.l1_cntrl0.mandatoryQueue.avg_buf_msgs     0.429701                       # Average number of messages in buffer
system.ruby.l1_cntrl0.mandatoryQueue.avg_stall_time  3015.440136                       # Average number of cycles messages are stalled in this MB
system.ruby.l1_cntrl0.reqTo.avg_buf_msgs     0.002302                       # Average number of messages in buffer
system.ruby.l1_cntrl0.reqTo.avg_stall_time   499.999817                       # Average number of cycles messages are stalled in this MB
system.ruby.l1_cntrl0.respFrom.avg_buf_msgs     0.001254                       # Average number of messages in buffer
system.ruby.l1_cntrl0.respFrom.avg_stall_time 16495.398912                       # Average number of cycles messages are stalled in this MB
system.ruby.l1_cntrl1.cache.demand_accesses            0                       # Number of cache demand accesses
system.ruby.l1_cntrl1.cache.demand_hits             0                       # Number of cache demand hits
system.ruby.l1_cntrl1.cache.demand_misses            0                       # Number of cache demand misses
system.ruby.l1_cntrl2.cache.demand_accesses            0                       # Number of cache demand accesses
system.ruby.l1_cntrl2.cache.demand_hits             0                       # Number of cache demand hits
system.ruby.l1_cntrl2.cache.demand_misses            0                       # Number of cache demand misses
system.ruby.l1_cntrl3.cache.demand_accesses            0                       # Number of cache demand accesses
system.ruby.l1_cntrl3.cache.demand_hits             0                       # Number of cache demand hits
system.ruby.l1_cntrl3.cache.demand_misses            0                       # Number of cache demand misses
system.ruby.latency_hist_seqr::bucket_size           32                      
system.ruby.latency_hist_seqr::max_bucket          319                      
system.ruby.latency_hist_seqr::samples        2158438                      
system.ruby.latency_hist_seqr::mean          0.000077                      
system.ruby.latency_hist_seqr::stdev         0.113670                      
system.ruby.latency_hist_seqr            |     2158437    100.00%    100.00% |           0      0.00%    100.00% |           0      0.00%    100.00% |           0      0.00%    100.00% |           0      0.00%    100.00% |           1      0.00%    100.00% |           0      0.00%    100.00% |           0      0.00%    100.00% |           0      0.00%    100.00% |           0      0.00%    100.00%
system.ruby.latency_hist_seqr::total          2158438                      
system.ruby.miss_latency_hist_seqr::bucket_size           32                      
system.ruby.miss_latency_hist_seqr::max_bucket          319                      
system.ruby.miss_latency_hist_seqr::samples         6850                      
system.ruby.miss_latency_hist_seqr::mean     0.024380                      
system.ruby.miss_latency_hist_seqr::stdev     2.017768                      
system.ruby.miss_latency_hist_seqr       |        6849     99.99%     99.99% |           0      0.00%     99.99% |           0      0.00%     99.99% |           0      0.00%     99.99% |           0      0.00%     99.99% |           1      0.01%    100.00% |           0      0.00%    100.00% |           0      0.00%    100.00% |           0      0.00%    100.00% |           0      0.00%    100.00%
system.ruby.miss_latency_hist_seqr::total         6850                      
system.ruby.network.average_flit_latency    16.555529                      
system.ruby.network.average_flit_network_latency    12.159383                      
system.ruby.network.average_flit_queueing_latency     4.396146                      
system.ruby.network.average_flit_vnet_latency |   15.000409                       |    5.000349                       |    9.175654                       |         nan                       |         nan                       |         nan                       |         nan                       |         nan                      
system.ruby.network.average_flit_vqueue_latency |           6                       |           6                       |           1                       |         nan                       |         nan                       |         nan                       |         nan                       |         nan                      
system.ruby.network.average_hops             1.000340                      
system.ruby.network.average_packet_latency    15.201487                      
system.ruby.network.average_packet_network_latency    11.701487                      
system.ruby.network.average_packet_queueing_latency     3.500000                      
system.ruby.network.average_packet_vnet_latency |   25.000438                       |    5.000349                       |    7.507078                       |         nan                       |         nan                       |         nan                       |         nan                       |         nan                      
system.ruby.network.average_packet_vqueue_latency |           6                       |           6                       |           1                       |         nan                       |         nan                       |         nan                       |         nan                       |         nan                      
system.ruby.network.avg_link_utilization     0.032321                      
system.ruby.network.avg_vc_load          |    0.014106     43.64%     43.64% |    0.001570      4.86%     48.50% |    0.001567      4.85%     53.35% |    0.001566      4.84%     58.19% |    0.002358      7.29%     65.49% |    0.000262      0.81%     66.30% |    0.000262      0.81%     67.11% |    0.000262      0.81%     67.92% |    0.007952     24.60%     92.52% |    0.000698      2.16%     94.68% |    0.001026      3.17%     97.86% |    0.000693      2.14%    100.00% |           0      0.00%    100.00% |           0      0.00%    100.00% |           0      0.00%    100.00% |           0      0.00%    100.00% |           0      0.00%    100.00% |           0      0.00%    100.00% |           0      0.00%    100.00% |           0      0.00%    100.00% |           0      0.00%    100.00% |           0      0.00%    100.00% |           0      0.00%    100.00% |           0      0.00%    100.00% |           0      0.00%    100.00% |           0      0.00%    100.00% |           0      0.00%    100.00% |           0      0.00%    100.00% |           0      0.00%    100.00% |           0      0.00%    100.00% |           0      0.00%    100.00% |           0      0.00%    100.00%
system.ruby.network.avg_vc_load::total       0.032321                      
system.ruby.network.ext_in_link_utilization        58852                      
system.ruby.network.ext_out_link_utilization        58852                      
system.ruby.network.flit_network_latency |      513764                       |       28622                       |      173218                       |           0                       |           0                       |           0                       |           0                       |           0                      
system.ruby.network.flit_queueing_latency |      205500                       |       34344                       |       18878                       |           0                       |           0                       |           0                       |           0                       |           0                      
system.ruby.network.flits_injected       |       34250     58.20%     58.20% |        5724      9.73%     67.92% |       18878     32.08%    100.00% |           0      0.00%    100.00% |           0      0.00%    100.00% |           0      0.00%    100.00% |           0      0.00%    100.00% |           0      0.00%    100.00%
system.ruby.network.flits_injected::total        58852                      
system.ruby.network.flits_received       |       34250     58.20%     58.20% |        5724      9.73%     67.92% |       18878     32.08%    100.00% |           0      0.00%    100.00% |           0      0.00%    100.00% |           0      0.00%    100.00% |           0      0.00%    100.00% |           0      0.00%    100.00%
system.ruby.network.flits_received::total        58852                      
system.ruby.network.int_link_utilization        58872                      
system.ruby.network.packet_network_latency |      171253                       |       28622                       |       94394                       |           0                       |           0                       |           0                       |           0                       |           0                      
system.ruby.network.packet_queueing_latency |       41100                       |       34344                       |       12574                       |           0                       |           0                       |           0                       |           0                       |           0                      
system.ruby.network.packets_injected     |        6850     27.24%     27.24% |        5724     22.76%     50.00% |       12574     50.00%    100.00% |           0      0.00%    100.00% |           0      0.00%    100.00% |           0      0.00%    100.00% |           0      0.00%    100.00% |           0      0.00%    100.00%
system.ruby.network.packets_injected::total        25148                      
[...]
system.mem_ctrls1.wrQLenPdf::1                      1                       # What write queue length does an incoming req see
system.mem_ctrls1.wrQLenPdf::2                      1                       # What write queue length does an incoming req see
system.mem_ctrls1.wrQLenPdf::3                      1                       # What write queue length does an incoming req see
system.mem_ctrls1.wrQLenPdf::4                      1                       # What write queue length does an incoming req see
system.mem_ctrls1.wrQLenPdf::5                      1                       # What write queue length does an incoming req see
system.mem_ctrls1.wrQLenPdf::6                      1                       # What write queue length does an incoming req see
system.mem_ctrls1.wrQLenPdf::7                      1                       # What write queue length does an incoming req see
system.mem_ctrls1.wrQLenPdf::8                      1                       # What write queue length does an incoming req see
system.mem_ctrls1.wrQLenPdf::9                      1                       # What write queue length does an incoming req see
system.mem_ctrls1.wrQLenPdf::10                     1                       # What write queue length does an incoming req see
system.mem_ctrls1.wrQLenPdf::11                     1                       # What write queue length does an incoming req see
system.mem_ctrls1.wrQLenPdf::12                     1                       # What write queue length does an incoming req see
system.mem_ctrls1.wrQLenPdf::13                     1                       # What write queue length does an incoming req see
system.mem_ctrls1.wrQLenPdf::14                     1                       # What write queue length does an incoming req see
system.mem_ctrls1.wrQLenPdf::15                     1                       # What write queue length does an incoming req see
system.mem_ctrls1.wrQLenPdf::16                     1                       # What write queue length does an incoming req see
system.mem_ctrls1.wrQLenPdf::17                    24                       # What write queue length does an incoming req see
system.mem_ctrls1.wrQLenPdf::18                    24                       # What write queue length does an incoming req see
system.mem_ctrls1.wrQLenPdf::19                    24                       # What write queue length does an incoming req see
system.mem_ctrls1.wrQLenPdf::20                    24                       # What write queue length does an incoming req see
system.mem_ctrls1.wrQLenPdf::21                    24                       # What write queue length does an incoming req see
system.mem_ctrls1.wrQLenPdf::22                    24                       # What write queue length does an incoming req see
system.mem_ctrls1.wrQLenPdf::23                    24                       # What write queue length does an incoming req see
system.mem_ctrls1.wrQLenPdf::24                    24                       # What write queue length does an incoming req see
system.mem_ctrls1.wrQLenPdf::25                    24                       # What write queue length does an incoming req see
system.mem_ctrls1.wrQLenPdf::26                    24                       # What write queue length does an incoming req see
system.mem_ctrls1.wrQLenPdf::27                    24                       # What write queue length does an incoming req see
system.mem_ctrls1.wrQLenPdf::28                    24                       # What write queue length does an incoming req see
system.mem_ctrls1.wrQLenPdf::29                    23                       # What write queue length does an incoming req see
system.mem_ctrls1.wrQLenPdf::30                    23                       # What write queue length does an incoming req see
system.mem_ctrls1.wrQLenPdf::31                    23                       # What write queue length does an incoming req see
system.mem_ctrls1.wrQLenPdf::32                    23                       # What write queue length does an incoming req see
system.mem_ctrls1.wrQLenPdf::33                     0                       # What write queue length does an incoming req see
system.mem_ctrls1.wrQLenPdf::34                     0                       # What write queue length does an incoming req see
system.mem_ctrls1.wrQLenPdf::35                     0                       # What write queue length does an incoming req see
system.mem_ctrls1.wrQLenPdf::36                     0                       # What write queue length does an incoming req see
system.mem_ctrls1.wrQLenPdf::37                     0                       # What write queue length does an incoming req see
system.mem_ctrls1.wrQLenPdf::38                     0                       # What write queue length does an incoming req see
system.mem_ctrls1.wrQLenPdf::39                     0                       # What write queue length does an incoming req see
system.mem_ctrls1.wrQLenPdf::40                     0                       # What write queue length does an incoming req see
system.mem_ctrls1.wrQLenPdf::41                     0                       # What write queue length does an incoming req see
system.mem_ctrls1.wrQLenPdf::42                     0                       # What write queue length does an incoming req see
system.mem_ctrls1.wrQLenPdf::43                     0                       # What write queue length does an incoming req see
system.mem_ctrls1.wrQLenPdf::44                     0                       # What write queue length does an incoming req see
system.mem_ctrls1.wrQLenPdf::45                     0                       # What write queue length does an incoming req see
system.mem_ctrls1.wrQLenPdf::46                     0                       # What write queue length does an incoming req see
system.mem_ctrls1.wrQLenPdf::47                     0                       # What write queue length does an incoming req see
system.mem_ctrls1.wrQLenPdf::48                     0                       # What write queue length does an incoming req see
system.mem_ctrls1.wrQLenPdf::49                     0                       # What write queue length does an incoming req see
system.mem_ctrls1.wrQLenPdf::50                     0                       # What write queue length does an incoming req see
system.mem_ctrls1.wrQLenPdf::51                     0                       # What write queue length does an incoming req see
system.mem_ctrls1.wrQLenPdf::52                     0                       # What write queue length does an incoming req see
system.mem_ctrls1.wrQLenPdf::53                     0                       # What write queue length does an incoming req see
system.mem_ctrls1.wrQLenPdf::54                     0                       # What write queue length does an incoming req see
system.mem_ctrls1.wrQLenPdf::55                     0                       # What write queue length does an incoming req see
system.mem_ctrls1.wrQLenPdf::56                     0                       # What write queue length does an incoming req see
system.mem_ctrls1.wrQLenPdf::57                     0                       # What write queue length does an incoming req see
system.mem_ctrls1.wrQLenPdf::58                     0                       # What write queue length does an incoming req see
system.mem_ctrls1.wrQLenPdf::59                     0                       # What write queue length does an incoming req see
system.mem_ctrls1.wrQLenPdf::60                     0                       # What write queue length does an incoming req see
system.mem_ctrls1.wrQLenPdf::61                     0                       # What write queue length does an incoming req see
system.mem_ctrls1.wrQLenPdf::62                     0                       # What write queue length does an incoming req see
system.mem_ctrls1.wrQLenPdf::63                     0                       # What write queue length does an incoming req see
system.mem_ctrls1.bytesPerActivate::samples          735                       # Bytes accessed per row activation
system.mem_ctrls1.bytesPerActivate::mean   180.593197                       # Bytes accessed per row activation
system.mem_ctrls1.bytesPerActivate::gmean   129.419213                       # Bytes accessed per row activation
system.mem_ctrls1.bytesPerActivate::stdev   193.529266                       # Bytes accessed per row activation
system.mem_ctrls1.bytesPerActivate::0-127          273     37.14%     37.14% # Bytes accessed per row activation
system.mem_ctrls1.bytesPerActivate::128-255          324     44.08%     81.22% # Bytes accessed per row activation
system.mem_ctrls1.bytesPerActivate::256-383           51      6.94%     88.16% # Bytes accessed per row activation
system.mem_ctrls1.bytesPerActivate::384-511           22      2.99%     91.16% # Bytes accessed per row activation
system.mem_ctrls1.bytesPerActivate::512-639           19      2.59%     93.74% # Bytes accessed per row activation
system.mem_ctrls1.bytesPerActivate::640-767           24      3.27%     97.01% # Bytes accessed per row activation
system.mem_ctrls1.bytesPerActivate::768-895            6      0.82%     97.82% # Bytes accessed per row activation
system.mem_ctrls1.bytesPerActivate::896-1023            3      0.41%     98.23% # Bytes accessed per row activation
system.mem_ctrls1.bytesPerActivate::1024-1151           13      1.77%    100.00% # Bytes accessed per row activation
system.mem_ctrls1.bytesPerActivate::total          735                       # Bytes accessed per row activation
system.mem_ctrls1.rdPerTurnAround::samples           23                       # Reads before turning the bus around for writes
system.mem_ctrls1.rdPerTurnAround::mean     73.695652                       # Reads before turning the bus around for writes
system.mem_ctrls1.rdPerTurnAround::gmean    44.211637                       # Reads before turning the bus around for writes
system.mem_ctrls1.rdPerTurnAround::stdev    84.964931                       # Reads before turning the bus around for writes
system.mem_ctrls1.rdPerTurnAround::16-31           10     43.48%     43.48% # Reads before turning the bus around for writes
system.mem_ctrls1.rdPerTurnAround::32-47            1      4.35%     47.83% # Reads before turning the bus around for writes
system.mem_ctrls1.rdPerTurnAround::48-63            4     17.39%     65.22% # Reads before turning the bus around for writes
system.mem_ctrls1.rdPerTurnAround::64-79            2      8.70%     73.91% # Reads before turning the bus around for writes
system.mem_ctrls1.rdPerTurnAround::96-111            1      4.35%     78.26% # Reads before turning the bus around for writes
system.mem_ctrls1.rdPerTurnAround::128-143            2      8.70%     86.96% # Reads before turning the bus around for writes
system.mem_ctrls1.rdPerTurnAround::144-159            1      4.35%     91.30% # Reads before turning the bus around for writes
system.mem_ctrls1.rdPerTurnAround::192-207            1      4.35%     95.65% # Reads before turning the bus around for writes
system.mem_ctrls1.rdPerTurnAround::368-383            1      4.35%    100.00% # Reads before turning the bus around for writes
system.mem_ctrls1.rdPerTurnAround::total           23                       # Reads before turning the bus around for writes
system.mem_ctrls1.wrPerTurnAround::samples           23                       # Writes before turning the bus around for reads
system.mem_ctrls1.wrPerTurnAround::mean            16                       # Writes before turning the bus around for reads
system.mem_ctrls1.wrPerTurnAround::gmean    16.000000                       # Writes before turning the bus around for reads
system.mem_ctrls1.wrPerTurnAround::16              23    100.00%    100.00% # Writes before turning the bus around for reads
system.mem_ctrls1.wrPerTurnAround::total           23                       # Writes before turning the bus around for reads
system.mem_ctrls1.bytesReadDRAM                109312                       # Total number of bytes read from DRAM
system.mem_ctrls1.bytesReadWrQ                   2752                       # Total number of bytes read from write queue
system.mem_ctrls1.bytesWritten                  23552                       # Total number of bytes written to DRAM
system.mem_ctrls1.bytesReadSys                 112064                       # Total read bytes from the system interface side
system.mem_ctrls1.bytesWrittenSys               25792                       # Total written bytes from the system interface side
system.mem_ctrls1.avgRdBW                       40.02                       # Average DRAM read bandwidth in MiByte/s
system.mem_ctrls1.avgWrBW                        8.62                       # Average achieved write bandwidth in MiByte/s
system.mem_ctrls1.avgRdBWSys                    41.03                       # Average system read bandwidth in MiByte/s
system.mem_ctrls1.avgWrBWSys                     9.44                       # Average system write bandwidth in MiByte/s
system.mem_ctrls1.peakBW                     12800.00                       # Theoretical peak bandwidth in MiByte/s
system.mem_ctrls1.busUtil                        0.38                       # Data bus utilization in percentage
system.mem_ctrls1.busUtilRead                    0.31                       # Data bus utilization in percentage for reads
system.mem_ctrls1.busUtilWrite                   0.07                       # Data bus utilization in percentage for writes
system.mem_ctrls1.totGap                   2729821000                       # Total gap between requests
system.mem_ctrls1.avgGap                   1267326.37                       # Average gap between requests
system.mem_ctrls1.masterReadBytes::.ruby.dir_cntrl1       109312                       # Per-master bytes read from memory
system.mem_ctrls1.masterWriteBytes::.ruby.dir_cntrl1        23552                       # Per-master bytes write to memory
system.mem_ctrls1.masterReadRate::.ruby.dir_cntrl1 40017835.818218156695                       # Per-master bytes read from memory rate (Bytes/sec)
system.mem_ctrls1.masterWriteRate::.ruby.dir_cntrl1 8622109.825002506375                       # Per-master bytes write to memory rate (Bytes/sec)
system.mem_ctrls1.masterReadAccesses::.ruby.dir_cntrl1         1751                       # Per-master read serviced memory accesses
system.mem_ctrls1.masterWriteAccesses::.ruby.dir_cntrl1          403                       # Per-master write serviced memory accesses
system.mem_ctrls1.masterReadTotalLat::.ruby.dir_cntrl1     48642724                       # Per-master read total memory access latency
system.mem_ctrls1.masterWriteTotalLat::.ruby.dir_cntrl1  61016236750                       # Per-master write total memory access latency
system.mem_ctrls1.masterReadAvgLat::.ruby.dir_cntrl1     27779.97                       # Per-master read average memory access latency
system.mem_ctrls1.masterWriteAvgLat::.ruby.dir_cntrl1 151405053.97                       # Per-master write average memory access latency
system.mem_ctrls1.pageHitRate                   63.66                       # Row buffer hit rate, read and write combined
system.mem_ctrls1.rank1.actEnergy             3748500                       # Energy for activate commands per rank (pJ)
system.mem_ctrls1.rank1.preEnergy             1988580                       # Energy for precharge commands per rank (pJ)
system.mem_ctrls1.rank1.readEnergy            8782200                       # Energy for read commands per rank (pJ)
system.mem_ctrls1.rank1.writeEnergy           1555560                       # Energy for write commands per rank (pJ)
system.mem_ctrls1.rank1.refreshEnergy    215124000.000000                       # Energy for refresh commands per rank (pJ)
system.mem_ctrls1.rank1.actBackEnergy       943782060                       # Energy for active background per rank (pJ)
system.mem_ctrls1.rank1.preBackEnergy       254163840                       # Energy for precharge background per rank (pJ)
system.mem_ctrls1.rank1.actPowerDownEnergy            0                       # Energy for active power-down per rank (pJ)
system.mem_ctrls1.rank1.prePowerDownEnergy            0                       # Energy for precharge power-down per rank (pJ)
system.mem_ctrls1.rank1.selfRefreshEnergy            0                       # Energy for self refresh per rank (pJ)
system.mem_ctrls1.rank1.totalEnergy        1429144740                       # Total energy per rank (pJ)
system.mem_ctrls1.rank1.averagePower       523.193058                       # Core power per rank (mW)
system.mem_ctrls1.rank1.totalIdleTime               0                       # Total Idle time Per DRAM Rank
system.mem_ctrls1.rank1.memoryStateTime::IDLE    652024325                       # Time in different power states
system.mem_ctrls1.rank1.memoryStateTime::REF     91000000                       # Time in different power states
system.mem_ctrls1.rank1.memoryStateTime::SREF            0                       # Time in different power states
system.mem_ctrls1.rank1.memoryStateTime::PRE_PDN            0                       # Time in different power states
system.mem_ctrls1.rank1.memoryStateTime::ACT   1988557675                       # Time in different power states
system.mem_ctrls1.rank1.memoryStateTime::ACT_PDN            0                       # Time in different power states
system.mem_ctrls1.rank0.actEnergy             1506540                       # Energy for activate commands per rank (pJ)
system.mem_ctrls1.rank0.preEnergy              800745                       # Energy for precharge commands per rank (pJ)
system.mem_ctrls1.rank0.readEnergy            3412920                       # Energy for read commands per rank (pJ)
system.mem_ctrls1.rank0.writeEnergy            365400                       # Energy for write commands per rank (pJ)
system.mem_ctrls1.rank0.refreshEnergy    215124000.000000                       # Energy for refresh commands per rank (pJ)
system.mem_ctrls1.rank0.actBackEnergy       222800460                       # Energy for active background per rank (pJ)
system.mem_ctrls1.rank0.preBackEnergy       861306240                       # Energy for precharge background per rank (pJ)
system.mem_ctrls1.rank0.actPowerDownEnergy            0                       # Energy for active power-down per rank (pJ)
system.mem_ctrls1.rank0.prePowerDownEnergy            0                       # Energy for precharge power-down per rank (pJ)
system.mem_ctrls1.rank0.selfRefreshEnergy            0                       # Energy for self refresh per rank (pJ)
system.mem_ctrls1.rank0.totalEnergy        1305316305                       # Total energy per rank (pJ)
system.mem_ctrls1.rank0.averagePower       477.860926                       # Core power per rank (mW)
system.mem_ctrls1.rank0.totalIdleTime               0                       # Total Idle time Per DRAM Rank
system.mem_ctrls1.rank0.memoryStateTime::IDLE   2237148059                       # Time in different power states
system.mem_ctrls1.rank0.memoryStateTime::REF     91000000                       # Time in different power states
system.mem_ctrls1.rank0.memoryStateTime::SREF            0                       # Time in different power states
system.mem_ctrls1.rank0.memoryStateTime::PRE_PDN            0                       # Time in different power states
system.mem_ctrls1.rank0.memoryStateTime::ACT    403433941                       # Time in different power states
system.mem_ctrls1.rank0.memoryStateTime::ACT_PDN            0                       # Time in different power states
system.mem_ctrls1.power_state.pwrStateResidencyTicks::UNDEFINED   2731582000                       # Cumulative time (in ticks) in various power states
system.cpu_voltage_domain.voltage                   1                       # Voltage in Volts

---------- End Simulation Statistics   ----------
