
---------- Begin Simulation Statistics ----------
final_tick                               102690874846001                       # Number of ticks from beginning of simulation (restored from checkpoints and never reset)
host_inst_rate                                 867998                       # Simulator instruction rate (inst/s)
host_mem_usage                                1759224                       # Number of bytes of host memory used
host_op_rate                                  1045070                       # Simulator op (including micro ops) rate (op/s)
host_seconds                                  7826.45                       # Real time elapsed on the host
host_tick_rate                              149472607                       # Simulator tick rate (ticks/s)
sim_freq                                 1000000000000                       # Frequency of simulated ticks
sim_insts                                  6793346996                       # Number of instructions simulated
sim_ops                                    8179194425                       # Number of ops (including micro ops) simulated
sim_seconds                                  1.169840                       # Number of seconds simulated
sim_ticks                                1169840269501                       # Number of ticks simulated
system.cpu0.committedInsts                          0                       # Number of instructions committed
system.cpu0.dtb.rdAccesses                          0                       # TLB accesses on read requests
system.cpu0.dtb.rdMisses                            0                       # TLB misses on read requests
system.cpu0.dtb.wrAccesses                          0                       # TLB accesses on write requests
system.cpu0.dtb.wrMisses                            0                       # TLB misses on write requests
system.cpu0.itb.rdAccesses                          0                       # TLB accesses on read requests
system.cpu0.itb.rdMisses                            0                       # TLB misses on read requests
system.cpu0.itb.wrAccesses                          0                       # TLB accesses on write requests
system.cpu0.itb.wrMisses                            0                       # TLB misses on write requests
system.cpu0.kern.inst.arm                           0                       # number of arm instructions executed
system.cpu0.kern.inst.quiesce                       0                       # number of quiesce instructions executed
system.cpu0.numCoalescedMMIO                        0                       # number of coalesced memory mapped IO requests
system.cpu0.numCycles                               0                       # number of cpu cycles simulated
system.cpu0.numExitSignal                           0                       # exits due to signal delivery
system.cpu0.numHalt                                 0                       # number of VM exits due to wait for interrupt instructions
system.cpu0.numHypercalls                           0                       # number of hypercalls
system.cpu0.numIO                                   0                       # number of VM exits due to legacy IO
system.cpu0.numInterrupts                           0                       # number of interrupts delivered
system.cpu0.numMMIO                                 0                       # number of VM exits due to memory mapped IO
system.cpu0.numVMExits                              0                       # total number of KVM exits
system.cpu0.numVMHalfEntries                        0                       # number of KVM entries to finalize pending operations
system.cpu0.numWorkItemsCompleted                   0                       # number of work items this cpu completed
system.cpu0.numWorkItemsStarted                     0                       # number of work items this cpu started
system.cpu1.committedInsts                          0                       # Number of instructions committed
system.cpu1.dtb.rdAccesses                          0                       # TLB accesses on read requests
system.cpu1.dtb.rdMisses                            0                       # TLB misses on read requests
system.cpu1.dtb.wrAccesses                          0                       # TLB accesses on write requests
system.cpu1.dtb.wrMisses                            0                       # TLB misses on write requests
system.cpu1.itb.rdAccesses                          0                       # TLB accesses on read requests
system.cpu1.itb.rdMisses                            0                       # TLB misses on read requests
system.cpu1.itb.wrAccesses                          0                       # TLB accesses on write requests
system.cpu1.itb.wrMisses                            0                       # TLB misses on write requests
system.cpu1.kern.inst.arm                           0                       # number of arm instructions executed
system.cpu1.kern.inst.quiesce                       0                       # number of quiesce instructions executed
system.cpu1.numCoalescedMMIO                        0                       # number of coalesced memory mapped IO requests
system.cpu1.numCycles                               0                       # number of cpu cycles simulated
system.cpu1.numExitSignal                           0                       # exits due to signal delivery
system.cpu1.numHalt                                 0                       # number of VM exits due to wait for interrupt instructions
system.cpu1.numHypercalls                           0                       # number of hypercalls
system.cpu1.numIO                                   0                       # number of VM exits due to legacy IO
system.cpu1.numInterrupts                           0                       # number of interrupts delivered
system.cpu1.numMMIO                                 0                       # number of VM exits due to memory mapped IO
system.cpu1.numVMExits                              0                       # total number of KVM exits
system.cpu1.numVMHalfEntries                        0                       # number of KVM entries to finalize pending operations
system.cpu1.numWorkItemsCompleted                   0                       # number of work items this cpu completed
system.cpu1.numWorkItemsStarted                     0                       # number of work items this cpu started
system.cpu2.committedInsts                          0                       # Number of instructions committed
system.cpu2.dtb.rdAccesses                          0                       # TLB accesses on read requests
system.cpu2.dtb.rdMisses                            0                       # TLB misses on read requests
system.cpu2.dtb.wrAccesses                          0                       # TLB accesses on write requests
system.cpu2.dtb.wrMisses                            0                       # TLB misses on write requests
system.cpu2.itb.rdAccesses                          0                       # TLB accesses on read requests
system.cpu2.itb.rdMisses                            0                       # TLB misses on read requests
system.cpu2.itb.wrAccesses                          0                       # TLB accesses on write requests
system.cpu2.itb.wrMisses                            0                       # TLB misses on write requests
system.cpu2.kern.inst.arm                           0                       # number of arm instructions executed
system.cpu2.kern.inst.quiesce                       0                       # number of quiesce instructions executed
system.cpu2.numCoalescedMMIO                        0                       # number of coalesced memory mapped IO requests
system.cpu2.numCycles                               0                       # number of cpu cycles simulated
system.cpu2.numExitSignal                           0                       # exits due to signal delivery
system.cpu2.numHalt                                 0                       # number of VM exits due to wait for interrupt instructions
system.cpu2.numHypercalls                           0                       # number of hypercalls
system.cpu2.numIO                                   0                       # number of VM exits due to legacy IO
system.cpu2.numInterrupts                           0                       # number of interrupts delivered
system.cpu2.numMMIO                                 0                       # number of VM exits due to memory mapped IO
system.cpu2.numVMExits                              0                       # total number of KVM exits
system.cpu2.numVMHalfEntries                        0                       # number of KVM entries to finalize pending operations
system.cpu2.numWorkItemsCompleted                   0                       # number of work items this cpu completed
system.cpu2.numWorkItemsStarted                     0                       # number of work items this cpu started
system.cpu3.committedInsts                          0                       # Number of instructions committed
system.cpu3.dtb.rdAccesses                          0                       # TLB accesses on read requests
system.cpu3.dtb.rdMisses                            0                       # TLB misses on read requests
system.cpu3.dtb.wrAccesses                          0                       # TLB accesses on write requests
system.cpu3.dtb.wrMisses                            0                       # TLB misses on write requests
system.cpu3.itb.rdAccesses                          0                       # TLB accesses on read requests
system.cpu3.itb.rdMisses                            0                       # TLB misses on read requests
system.cpu3.itb.wrAccesses                          0                       # TLB accesses on write requests
system.cpu3.itb.wrMisses                            0                       # TLB misses on write requests
system.cpu3.kern.inst.arm                           0                       # number of arm instructions executed
system.cpu3.kern.inst.quiesce                       0                       # number of quiesce instructions executed
system.cpu3.numCoalescedMMIO                        0                       # number of coalesced memory mapped IO requests
system.cpu3.numCycles                               0                       # number of cpu cycles simulated
system.cpu3.numExitSignal                           0                       # exits due to signal delivery
system.cpu3.numHalt                                 0                       # number of VM exits due to wait for interrupt instructions
system.cpu3.numHypercalls                           0                       # number of hypercalls
system.cpu3.numIO                                   0                       # number of VM exits due to legacy IO
system.cpu3.numInterrupts                           0                       # number of interrupts delivered
system.cpu3.numMMIO                                 0                       # number of VM exits due to memory mapped IO
system.cpu3.numVMExits                              0                       # total number of KVM exits
system.cpu3.numVMHalfEntries                        0                       # number of KVM entries to finalize pending operations
system.cpu3.numWorkItemsCompleted                   0                       # number of work items this cpu completed
system.cpu3.numWorkItemsStarted                     0                       # number of work items this cpu started
system.pc.south_bridge.ide.disks.dma_read_bytes       270336                       # Number of bytes transfered via DMA reads (not PRD).
system.pc.south_bridge.ide.disks.dma_read_full_pages           66                       # Number of full page size DMA reads (not PRD).
system.pc.south_bridge.ide.disks.dma_read_txs           66                       # Number of DMA read transactions (not PRD).
system.pc.south_bridge.ide.disks.dma_write_bytes       425984                       # Number of bytes transfered via DMA writes.
system.pc.south_bridge.ide.disks.dma_write_full_pages          104                       # Number of full page size DMA writes.
system.pc.south_bridge.ide.disks.dma_write_txs          104                       # Number of DMA write transactions.
system.ruby.DMA_Controller.I.allocI_load |        4243    100.00%    100.00% |           0      0.00%    100.00%
system.ruby.DMA_Controller.I.allocI_load::total         4243                      
system.ruby.DMA_Controller.I.allocI_store |        6656    100.00%    100.00% |           0      0.00%    100.00%
system.ruby.DMA_Controller.I.allocI_store::total         6656                      
system.ruby.DMA_Controller.I.deallocfwdfrom_in |        9878    100.00%    100.00% |           0      0.00%    100.00%
system.ruby.DMA_Controller.I.deallocfwdfrom_in::total         9878                      
system.ruby.DMA_Controller.M.allocTBE    |        6656    100.00%    100.00% |           0      0.00%    100.00%
system.ruby.DMA_Controller.M.allocTBE::total         6656                      
system.ruby.DMA_Controller.M.externalstoreMrespfrom_in |        6656    100.00%    100.00% |           0      0.00%    100.00%
system.ruby.DMA_Controller.M.externalstoreMrespfrom_in::total         6656                      
system.ruby.DMA_Controller.M_evict.Stallmandatory_in |       96232    100.00%    100.00% |           0      0.00%    100.00%
system.ruby.DMA_Controller.M_evict.Stallmandatory_in::total        96232                      
system.ruby.DMA_Controller.S.SloadSEvent |          88    100.00%    100.00% |           0      0.00%    100.00%
system.ruby.DMA_Controller.S.SloadSEvent::total           88                      
system.ruby.DMA_Controller.S.allocTBE    |        3355    100.00%    100.00% |           0      0.00%    100.00%
system.ruby.DMA_Controller.S.allocTBE::total         3355                      
system.ruby.DMA_Controller.S.deallocTBE  |         132    100.00%    100.00% |           0      0.00%    100.00%
system.ruby.DMA_Controller.S.deallocTBE::total          132                      
system.ruby.DMA_Controller.S.externalloadSrespfrom_in |        4243    100.00%    100.00% |           0      0.00%    100.00%
system.ruby.DMA_Controller.S.externalloadSrespfrom_in::total         4243                      
system.ruby.DMA_Controller.S_evict.Stallmandatory_in |       10512    100.00%    100.00% |           0      0.00%    100.00%
system.ruby.DMA_Controller.S_evict.Stallmandatory_in::total        10512                      
system.ruby.DMA_Controller.SloadSEvent   |          88    100.00%    100.00% |           0      0.00%    100.00%
system.ruby.DMA_Controller.SloadSEvent::total           88                      
system.ruby.DMA_Controller.Stallmandatory_in |      106744    100.00%    100.00% |           0      0.00%    100.00%
system.ruby.DMA_Controller.Stallmandatory_in::total       106744                      
system.ruby.DMA_Controller.allocI_load   |        4243    100.00%    100.00% |           0      0.00%    100.00%
system.ruby.DMA_Controller.allocI_load::total         4243                      
system.ruby.DMA_Controller.allocI_store  |        6656    100.00%    100.00% |           0      0.00%    100.00%
system.ruby.DMA_Controller.allocI_store::total         6656                      
system.ruby.DMA_Controller.allocTBE      |       10011    100.00%    100.00% |           0      0.00%    100.00%
system.ruby.DMA_Controller.allocTBE::total        10011                      
system.ruby.DMA_Controller.deallocTBE    |         132    100.00%    100.00% |           0      0.00%    100.00%
system.ruby.DMA_Controller.deallocTBE::total          132                      
system.ruby.DMA_Controller.deallocfwdfrom_in |        9878    100.00%    100.00% |           0      0.00%    100.00%
system.ruby.DMA_Controller.deallocfwdfrom_in::total         9878                      
system.ruby.DMA_Controller.externalloadSrespfrom_in |        4243    100.00%    100.00% |           0      0.00%    100.00%
system.ruby.DMA_Controller.externalloadSrespfrom_in::total         4243                      
system.ruby.DMA_Controller.externalstoreMrespfrom_in |        6656    100.00%    100.00% |           0      0.00%    100.00%
system.ruby.DMA_Controller.externalstoreMrespfrom_in::total         6656                      
system.ruby.Directory_Controller.I.allocTBE |     2884657     25.45%     25.45% |     2862272     25.25%     50.70% |     2812701     24.81%     75.51% |     2775568     24.49%    100.00%
system.ruby.Directory_Controller.I.allocTBE::total     11335198                      
system.ruby.Directory_Controller.I.deallocTBE |     2883680     25.45%     25.45% |     2861284     25.25%     50.70% |     2811734     24.81%     75.51% |     2774563     24.49%    100.00%
system.ruby.Directory_Controller.I.deallocTBE::total     11331261                      
system.ruby.Directory_Controller.I_GetSL1C1C1_0.Stallreqto_in |         893     18.83%     18.83% |        1529     32.24%     51.06% |        1313     27.68%     78.75% |        1008     21.25%    100.00%
system.ruby.Directory_Controller.I_GetSL1C1C1_0.Stallreqto_in::total         4743                      
system.ruby.Directory_Controller.M.allocTBE |     1685161     24.93%     24.93% |     1706306     25.24%     50.17% |     1689298     24.99%     75.16% |     1679534     24.84%    100.00%
system.ruby.Directory_Controller.M.allocTBE::total      6760299                      
system.ruby.Directory_Controller.M.deallocTBE |     1685312     24.93%     24.93% |     1706439     25.24%     50.17% |     1689451     24.99%     75.16% |     1679684     24.84%    100.00%
system.ruby.Directory_Controller.M.deallocTBE::total      6760886                      
system.ruby.Directory_Controller.M_GetM.Progress |         383     19.13%     19.13% |         595     29.72%     48.85% |         796     39.76%     88.61% |         228     11.39%    100.00%
system.ruby.Directory_Controller.M_GetM.Progress::total         2002                      
system.ruby.Directory_Controller.M_GetS.Progress |        3390     30.93%     30.93% |        2498     22.79%     53.72% |        2601     23.73%     77.45% |        2472     22.55%    100.00%
system.ruby.Directory_Controller.M_GetS.Progress::total        10961                      
system.ruby.Directory_Controller.M_GetS.Stallreqto_in |           5     38.46%     38.46% |           0      0.00%     38.46% |           5     38.46%     76.92% |           3     23.08%    100.00%
system.ruby.Directory_Controller.M_GetS.Stallreqto_in::total           13                      
system.ruby.Directory_Controller.M_GetS_WBL1C1C1_0.Stallreqto_in |          80     15.41%     15.41% |         110     21.19%     36.61% |         117     22.54%     59.15% |         212     40.85%    100.00%
system.ruby.Directory_Controller.M_GetS_WBL1C1C1_0.Stallreqto_in::total          519                      
system.ruby.Directory_Controller.Progress |        3773     29.11%     29.11% |        3093     23.86%     52.97% |        3397     26.21%     79.17% |        2700     20.83%    100.00%
system.ruby.Directory_Controller.Progress::total        12963                      
system.ruby.Directory_Controller.S.allocTBE |     2363052     25.44%     25.44% |     2357639     25.38%     50.82% |     2299113     24.75%     75.57% |     2268944     24.43%    100.00%
system.ruby.Directory_Controller.S.allocTBE::total      9288748                      
system.ruby.Directory_Controller.S.deallocTBE |     2363878     25.44%     25.44% |     2358494     25.38%     50.82% |     2299927     24.75%     75.57% |     2269799     24.43%    100.00%
system.ruby.Directory_Controller.S.deallocTBE::total      9292098                      
system.ruby.Directory_Controller.S_GetM.Stallreqto_in |          76      9.93%      9.93% |          49      6.41%     16.34% |         382     49.93%     66.27% |         258     33.73%    100.00%
system.ruby.Directory_Controller.S_GetM.Stallreqto_in::total          765                      
system.ruby.Directory_Controller.S_GetM.allocTBE |        3498     30.47%     30.47% |        2706     23.57%     54.04% |        2801     24.40%     78.43% |        2476     21.57%    100.00%
system.ruby.Directory_Controller.S_GetM.allocTBE::total        11481                      
system.ruby.Directory_Controller.S_GetM.deallocTBE |        3498     30.47%     30.47% |        2706     23.57%     54.04% |        2801     24.40%     78.43% |        2476     21.57%    100.00%
system.ruby.Directory_Controller.S_GetM.deallocTBE::total        11481                      
system.ruby.Directory_Controller.S_GetML1C1C1_2.Stallreqto_in |           4     44.44%     44.44% |           5     55.56%    100.00% |           0      0.00%    100.00% |           0      0.00%    100.00%
system.ruby.Directory_Controller.S_GetML1C1C1_2.Stallreqto_in::total            9                      
system.ruby.Directory_Controller.S_GetML1C1C1_3.Stallreqto_in |           3    100.00%    100.00% |           0      0.00%    100.00% |           0      0.00%    100.00% |           0      0.00%    100.00%
system.ruby.Directory_Controller.S_GetML1C1C1_3.Stallreqto_in::total            3                      
system.ruby.Directory_Controller.S_GetSL1C1C1_0.Stallreqto_in |         530     20.70%     20.70% |         800     31.24%     51.93% |         901     35.18%     87.11% |         330     12.89%    100.00%
system.ruby.Directory_Controller.S_GetSL1C1C1_0.Stallreqto_in::total         2561                      
system.ruby.Directory_Controller.Stallreqto_in |        1591     18.47%     18.47% |        2493     28.94%     47.42% |        2718     31.56%     78.97% |        1811     21.03%    100.00%
system.ruby.Directory_Controller.Stallreqto_in::total         8613                      
system.ruby.Directory_Controller.allocTBE |     6936368     25.32%     25.32% |     6928923     25.29%     50.61% |     6803913     24.84%     75.45% |     6726522     24.55%    100.00%
system.ruby.Directory_Controller.allocTBE::total     27395726                      
system.ruby.Directory_Controller.deallocTBE |     6936368     25.32%     25.32% |     6928923     25.29%     50.61% |     6803913     24.84%     75.45% |     6726522     24.55%    100.00%
system.ruby.Directory_Controller.deallocTBE::total     27395726                      
system.ruby.IFETCH.hit_latency_hist_seqr::bucket_size            1                      
system.ruby.IFETCH.hit_latency_hist_seqr::max_bucket            9                      
system.ruby.IFETCH.hit_latency_hist_seqr::samples   2624889526                      
system.ruby.IFETCH.hit_latency_hist_seqr |  2624889526    100.00%    100.00% |           0      0.00%    100.00% |           0      0.00%    100.00% |           0      0.00%    100.00% |           0      0.00%    100.00% |           0      0.00%    100.00% |           0      0.00%    100.00% |           0      0.00%    100.00% |           0      0.00%    100.00% |           0      0.00%    100.00%
system.ruby.IFETCH.hit_latency_hist_seqr::total   2624889526                      
system.ruby.IFETCH.latency_hist_seqr::bucket_size            1                      
system.ruby.IFETCH.latency_hist_seqr::max_bucket            9                      
system.ruby.IFETCH.latency_hist_seqr::samples   2627203068                      
system.ruby.IFETCH.latency_hist_seqr     |  2627203068    100.00%    100.00% |           0      0.00%    100.00% |           0      0.00%    100.00% |           0      0.00%    100.00% |           0      0.00%    100.00% |           0      0.00%    100.00% |           0      0.00%    100.00% |           0      0.00%    100.00% |           0      0.00%    100.00% |           0      0.00%    100.00%
system.ruby.IFETCH.latency_hist_seqr::total   2627203068                      
system.ruby.IFETCH.miss_latency_hist_seqr::bucket_size            1                      
system.ruby.IFETCH.miss_latency_hist_seqr::max_bucket            9                      
system.ruby.IFETCH.miss_latency_hist_seqr::samples      2313542                      
system.ruby.IFETCH.miss_latency_hist_seqr |     2313542    100.00%    100.00% |           0      0.00%    100.00% |           0      0.00%    100.00% |           0      0.00%    100.00% |           0      0.00%    100.00% |           0      0.00%    100.00% |           0      0.00%    100.00% |           0      0.00%    100.00% |           0      0.00%    100.00% |           0      0.00%    100.00%
system.ruby.IFETCH.miss_latency_hist_seqr::total      2313542                      
system.ruby.L1Cache_Controller.I.allocI_load |     2361917     31.45%     31.45% |     1503053     20.01%     51.46% |     1921421     25.58%     77.05% |     1723774     22.95%    100.00%
system.ruby.L1Cache_Controller.I.allocI_load::total      7510165                      
system.ruby.L1Cache_Controller.I.allocI_store |     1193238     21.27%     21.27% |     1299678     23.16%     44.43% |     1861242     33.17%     77.60% |     1256604     22.40%    100.00%
system.ruby.L1Cache_Controller.I.allocI_store::total      5610762                      
system.ruby.L1Cache_Controller.I.deallocfwdfrom_in |     3554194     27.10%     27.10% |     2801754     21.36%     48.46% |     3781649     28.83%     77.29% |     2979354     22.71%    100.00%
system.ruby.L1Cache_Controller.I.deallocfwdfrom_in::total     13116951                      
system.ruby.L1Cache_Controller.I_store.Progress |        3848     90.88%     90.88% |          76      1.79%     92.68% |         189      4.46%     97.14% |         121      2.86%    100.00%
system.ruby.L1Cache_Controller.I_store.Progress::total         4234                      
system.ruby.L1Cache_Controller.I_store.Stallfwdfrom_in |           4     36.36%     36.36% |           2     18.18%     54.55% |           4     36.36%     90.91% |           1      9.09%    100.00%
system.ruby.L1Cache_Controller.I_store.Stallfwdfrom_in::total           11                      
system.ruby.L1Cache_Controller.M.MloadMEvent |    85874016     23.15%     23.15% |    95492715     25.75%     48.90% |    89753456     24.20%     73.10% |    99775872     26.90%    100.00%
system.ruby.L1Cache_Controller.M.MloadMEvent::total    370896059                      
system.ruby.L1Cache_Controller.M.MstoreMEvent |    29198145     24.81%     24.81% |    26257953     22.31%     47.13% |    35453847     30.13%     77.26% |    26760121     22.74%    100.00%
system.ruby.L1Cache_Controller.M.MstoreMEvent::total    117670066                      
system.ruby.L1Cache_Controller.M.allocTBE |     1620757     24.00%     24.00% |     1452511     21.51%     45.51% |     2128789     31.52%     77.03% |     1551585     22.97%    100.00%
system.ruby.L1Cache_Controller.M.allocTBE::total      6753642                      
system.ruby.L1Cache_Controller.M.externalstoreMrespfrom_in |     1620870     24.00%     24.00% |     1452639     21.51%     45.50% |     2128940     31.52%     77.03% |     1551780     22.97%    100.00%
system.ruby.L1Cache_Controller.M.externalstoreMrespfrom_in::total      6754229                      
system.ruby.L1Cache_Controller.M_evict.Stallmandatory_in |         610     29.67%     29.67% |         402     19.55%     49.22% |         541     26.31%     75.54% |         503     24.46%    100.00%
system.ruby.L1Cache_Controller.M_evict.Stallmandatory_in::total         2056                      
system.ruby.L1Cache_Controller.MloadMEvent |    85874016     23.15%     23.15% |    95492715     25.75%     48.90% |    89753456     24.20%     73.10% |    99775872     26.90%    100.00%
system.ruby.L1Cache_Controller.MloadMEvent::total    370896059                      
system.ruby.L1Cache_Controller.MstoreMEvent |    29198145     24.81%     24.81% |    26257953     22.31%     47.13% |    35453847     30.13%     77.26% |    26760121     22.74%    100.00%
system.ruby.L1Cache_Controller.MstoreMEvent::total    117670066                      
system.ruby.L1Cache_Controller.Progress  |      438559     37.83%     37.83% |      154416     13.32%     51.15% |      270113     23.30%     74.45% |      296267     25.55%    100.00%
system.ruby.L1Cache_Controller.Progress::total      1159355                      
system.ruby.L1Cache_Controller.S.SloadSEvent |   691875217     24.74%     24.74% |   645862237     23.10%     47.84% |   660818690     23.63%     71.47% |   797726801     28.53%    100.00%
system.ruby.L1Cache_Controller.S.SloadSEvent::total   2796282945                      
system.ruby.L1Cache_Controller.S.allocTBE |     2367080     31.49%     31.49% |     1503606     20.00%     51.49% |     1922308     25.57%     77.06% |     1724610     22.94%    100.00%
system.ruby.L1Cache_Controller.S.allocTBE::total      7517604                      
system.ruby.L1Cache_Controller.S.deallocTBE |        6011     55.51%     55.51% |        1402     12.95%     68.46% |        1750     16.16%     84.62% |        1665     15.38%    100.00%
system.ruby.L1Cache_Controller.S.deallocTBE::total        10828                      
system.ruby.L1Cache_Controller.S.externalloadSrespfrom_in |     2361917     31.45%     31.45% |     1503053     20.01%     51.46% |     1921421     25.58%     77.05% |     1723774     22.95%    100.00%
system.ruby.L1Cache_Controller.S.externalloadSrespfrom_in::total      7510165                      
system.ruby.L1Cache_Controller.S_evict.Progress |           1    100.00%    100.00% |           0      0.00%    100.00% |           0      0.00%    100.00% |           0      0.00%    100.00%
system.ruby.L1Cache_Controller.S_evict.Progress::total            1                      
system.ruby.L1Cache_Controller.S_evict.Stallmandatory_in |         424     32.82%     32.82% |         211     16.33%     49.15% |         340     26.32%     75.46% |         317     24.54%    100.00%
system.ruby.L1Cache_Controller.S_evict.Stallmandatory_in::total         1292                      
system.ruby.L1Cache_Controller.S_evict_x_I.Progress |           0      0.00%      0.00% |           0      0.00%      0.00% |           0      0.00%      0.00% |           1    100.00%    100.00%
system.ruby.L1Cache_Controller.S_evict_x_I.Progress::total            1                      
system.ruby.L1Cache_Controller.S_evict_x_I.Stallmandatory_in |           0      0.00%      0.00% |           0      0.00%      0.00% |           0      0.00%      0.00% |           5    100.00%    100.00%
system.ruby.L1Cache_Controller.S_evict_x_I.Stallmandatory_in::total            5                      
system.ruby.L1Cache_Controller.S_store.Progress |      434710     37.63%     37.63% |      154340     13.36%     50.99% |      269924     23.37%     74.36% |      296145     25.64%    100.00%
system.ruby.L1Cache_Controller.S_store.Progress::total      1155119                      
system.ruby.L1Cache_Controller.S_store.Stallfwdfrom_in |           0      0.00%      0.00% |           0      0.00%      0.00% |           0      0.00%      0.00% |           2    100.00%    100.00%
system.ruby.L1Cache_Controller.S_store.Stallfwdfrom_in::total            2                      
system.ruby.L1Cache_Controller.SloadSEvent |   691875217     24.74%     24.74% |   645862237     23.10%     47.84% |   660818690     23.63%     71.47% |   797726801     28.53%    100.00%
system.ruby.L1Cache_Controller.SloadSEvent::total   2796282945                      
system.ruby.L1Cache_Controller.Stallfwdfrom_in |           4     30.77%     30.77% |           2     15.38%     46.15% |           4     30.77%     76.92% |           3     23.08%    100.00%
system.ruby.L1Cache_Controller.Stallfwdfrom_in::total           13                      
system.ruby.L1Cache_Controller.Stallmandatory_in |        1034     30.84%     30.84% |         613     18.28%     49.12% |         881     26.27%     75.40% |         825     24.60%    100.00%
system.ruby.L1Cache_Controller.Stallmandatory_in::total         3353                      
system.ruby.L1Cache_Controller.allocI_load |     2361917     31.45%     31.45% |     1503053     20.01%     51.46% |     1921421     25.58%     77.05% |     1723774     22.95%    100.00%
system.ruby.L1Cache_Controller.allocI_load::total      7510165                      
system.ruby.L1Cache_Controller.allocI_store |     1193238     21.27%     21.27% |     1299678     23.16%     44.43% |     1861242     33.17%     77.60% |     1256604     22.40%    100.00%
system.ruby.L1Cache_Controller.allocI_store::total      5610762                      
system.ruby.L1Cache_Controller.allocTBE  |     3987837     27.94%     27.94% |     2956117     20.71%     48.66% |     4051097     28.39%     77.04% |     3276195     22.96%    100.00%
system.ruby.L1Cache_Controller.allocTBE::total     14271246                      
system.ruby.L1Cache_Controller.deallocTBE |        6011     55.51%     55.51% |        1402     12.95%     68.46% |        1750     16.16%     84.62% |        1665     15.38%    100.00%
system.ruby.L1Cache_Controller.deallocTBE::total        10828                      
system.ruby.L1Cache_Controller.deallocfwdfrom_in |     3554194     27.10%     27.10% |     2801754     21.36%     48.46% |     3781649     28.83%     77.29% |     2979354     22.71%    100.00%
system.ruby.L1Cache_Controller.deallocfwdfrom_in::total     13116951                      
system.ruby.L1Cache_Controller.externalloadSrespfrom_in |     2361917     31.45%     31.45% |     1503053     20.01%     51.46% |     1921421     25.58%     77.05% |     1723774     22.95%    100.00%
system.ruby.L1Cache_Controller.externalloadSrespfrom_in::total      7510165                      
system.ruby.L1Cache_Controller.externalstoreMrespfrom_in |     1620870     24.00%     24.00% |     1452639     21.51%     45.50% |     2128940     31.52%     77.03% |     1551780     22.97%    100.00%
system.ruby.L1Cache_Controller.externalstoreMrespfrom_in::total      6754229                      
system.ruby.LD.hit_latency_hist_seqr::bucket_size            1                      
system.ruby.LD.hit_latency_hist_seqr::max_bucket            9                      
system.ruby.LD.hit_latency_hist_seqr::samples    542289478                      
system.ruby.LD.hit_latency_hist_seqr     |   542289478    100.00%    100.00% |           0      0.00%    100.00% |           0      0.00%    100.00% |           0      0.00%    100.00% |           0      0.00%    100.00% |           0      0.00%    100.00% |           0      0.00%    100.00% |           0      0.00%    100.00% |           0      0.00%    100.00% |           0      0.00%    100.00%
system.ruby.LD.hit_latency_hist_seqr::total    542289478                      
system.ruby.LD.latency_hist_seqr::bucket_size            1                      
system.ruby.LD.latency_hist_seqr::max_bucket            9                      
system.ruby.LD.latency_hist_seqr::samples    547486101                      
system.ruby.LD.latency_hist_seqr         |   547486101    100.00%    100.00% |           0      0.00%    100.00% |           0      0.00%    100.00% |           0      0.00%    100.00% |           0      0.00%    100.00% |           0      0.00%    100.00% |           0      0.00%    100.00% |           0      0.00%    100.00% |           0      0.00%    100.00% |           0      0.00%    100.00%
system.ruby.LD.latency_hist_seqr::total     547486101                      
system.ruby.LD.miss_latency_hist_seqr::bucket_size            1                      
system.ruby.LD.miss_latency_hist_seqr::max_bucket            9                      
system.ruby.LD.miss_latency_hist_seqr::samples      5196623                      
system.ruby.LD.miss_latency_hist_seqr    |     5196623    100.00%    100.00% |           0      0.00%    100.00% |           0      0.00%    100.00% |           0      0.00%    100.00% |           0      0.00%    100.00% |           0      0.00%    100.00% |           0      0.00%    100.00% |           0      0.00%    100.00% |           0      0.00%    100.00% |           0      0.00%    100.00%
system.ruby.LD.miss_latency_hist_seqr::total      5196623                      
system.ruby.Locked_RMW_Read.hit_latency_hist_seqr::bucket_size            1                      
system.ruby.Locked_RMW_Read.hit_latency_hist_seqr::max_bucket            9                      
system.ruby.Locked_RMW_Read.hit_latency_hist_seqr::samples        86264                      
system.ruby.Locked_RMW_Read.hit_latency_hist_seqr |       86264    100.00%    100.00% |           0      0.00%    100.00% |           0      0.00%    100.00% |           0      0.00%    100.00% |           0      0.00%    100.00% |           0      0.00%    100.00% |           0      0.00%    100.00% |           0      0.00%    100.00% |           0      0.00%    100.00% |           0      0.00%    100.00%
system.ruby.Locked_RMW_Read.hit_latency_hist_seqr::total        86264                      
system.ruby.Locked_RMW_Read.latency_hist_seqr::bucket_size            1                      
system.ruby.Locked_RMW_Read.latency_hist_seqr::max_bucket            9                      
system.ruby.Locked_RMW_Read.latency_hist_seqr::samples       119870                      
system.ruby.Locked_RMW_Read.latency_hist_seqr |      119870    100.00%    100.00% |           0      0.00%    100.00% |           0      0.00%    100.00% |           0      0.00%    100.00% |           0      0.00%    100.00% |           0      0.00%    100.00% |           0      0.00%    100.00% |           0      0.00%    100.00% |           0      0.00%    100.00% |           0      0.00%    100.00%
system.ruby.Locked_RMW_Read.latency_hist_seqr::total       119870                      
system.ruby.Locked_RMW_Read.miss_latency_hist_seqr::bucket_size            1                      
system.ruby.Locked_RMW_Read.miss_latency_hist_seqr::max_bucket            9                      
system.ruby.Locked_RMW_Read.miss_latency_hist_seqr::samples        33606                      
system.ruby.Locked_RMW_Read.miss_latency_hist_seqr |       33606    100.00%    100.00% |           0      0.00%    100.00% |           0      0.00%    100.00% |           0      0.00%    100.00% |           0      0.00%    100.00% |           0      0.00%    100.00% |           0      0.00%    100.00% |           0      0.00%    100.00% |           0      0.00%    100.00% |           0      0.00%    100.00%
system.ruby.Locked_RMW_Read.miss_latency_hist_seqr::total        33606                      
system.ruby.Locked_RMW_Write.hit_latency_hist_seqr::bucket_size            1                      
system.ruby.Locked_RMW_Write.hit_latency_hist_seqr::max_bucket            9                      
system.ruby.Locked_RMW_Write.hit_latency_hist_seqr::samples       119870                      
system.ruby.Locked_RMW_Write.hit_latency_hist_seqr |      119870    100.00%    100.00% |           0      0.00%    100.00% |           0      0.00%    100.00% |           0      0.00%    100.00% |           0      0.00%    100.00% |           0      0.00%    100.00% |           0      0.00%    100.00% |           0      0.00%    100.00% |           0      0.00%    100.00% |           0      0.00%    100.00%
system.ruby.Locked_RMW_Write.hit_latency_hist_seqr::total       119870                      
system.ruby.Locked_RMW_Write.latency_hist_seqr::bucket_size            1                      
system.ruby.Locked_RMW_Write.latency_hist_seqr::max_bucket            9                      
system.ruby.Locked_RMW_Write.latency_hist_seqr::samples       119870                      
system.ruby.Locked_RMW_Write.latency_hist_seqr |      119870    100.00%    100.00% |           0      0.00%    100.00% |           0      0.00%    100.00% |           0      0.00%    100.00% |           0      0.00%    100.00% |           0      0.00%    100.00% |           0      0.00%    100.00% |           0      0.00%    100.00% |           0      0.00%    100.00% |           0      0.00%    100.00%
system.ruby.Locked_RMW_Write.latency_hist_seqr::total       119870                      
system.ruby.RMW_Read.hit_latency_hist_seqr::bucket_size            1                      
system.ruby.RMW_Read.hit_latency_hist_seqr::max_bucket            9                      
system.ruby.RMW_Read.hit_latency_hist_seqr::samples      2720246                      
system.ruby.RMW_Read.hit_latency_hist_seqr |     2720246    100.00%    100.00% |           0      0.00%    100.00% |           0      0.00%    100.00% |           0      0.00%    100.00% |           0      0.00%    100.00% |           0      0.00%    100.00% |           0      0.00%    100.00% |           0      0.00%    100.00% |           0      0.00%    100.00% |           0      0.00%    100.00%
system.ruby.RMW_Read.hit_latency_hist_seqr::total      2720246                      
system.ruby.RMW_Read.latency_hist_seqr::bucket_size            1                      
system.ruby.RMW_Read.latency_hist_seqr::max_bucket            9                      
system.ruby.RMW_Read.latency_hist_seqr::samples      2786517                      
system.ruby.RMW_Read.latency_hist_seqr   |     2786517    100.00%    100.00% |           0      0.00%    100.00% |           0      0.00%    100.00% |           0      0.00%    100.00% |           0      0.00%    100.00% |           0      0.00%    100.00% |           0      0.00%    100.00% |           0      0.00%    100.00% |           0      0.00%    100.00% |           0      0.00%    100.00%
system.ruby.RMW_Read.latency_hist_seqr::total      2786517                      
system.ruby.RMW_Read.miss_latency_hist_seqr::bucket_size            1                      
system.ruby.RMW_Read.miss_latency_hist_seqr::max_bucket            9                      
system.ruby.RMW_Read.miss_latency_hist_seqr::samples        66271                      
system.ruby.RMW_Read.miss_latency_hist_seqr |       66271    100.00%    100.00% |           0      0.00%    100.00% |           0      0.00%    100.00% |           0      0.00%    100.00% |           0      0.00%    100.00% |           0      0.00%    100.00% |           0      0.00%    100.00% |           0      0.00%    100.00% |           0      0.00%    100.00% |           0      0.00%    100.00%
system.ruby.RMW_Read.miss_latency_hist_seqr::total        66271                      
system.ruby.ST.hit_latency_hist_seqr::bucket_size            1                      
system.ruby.ST.hit_latency_hist_seqr::max_bucket            9                      
system.ruby.ST.hit_latency_hist_seqr::samples    114743686                      
system.ruby.ST.hit_latency_hist_seqr     |   114743686    100.00%    100.00% |           0      0.00%    100.00% |           0      0.00%    100.00% |           0      0.00%    100.00% |           0      0.00%    100.00% |           0      0.00%    100.00% |           0      0.00%    100.00% |           0      0.00%    100.00% |           0      0.00%    100.00% |           0      0.00%    100.00%
system.ruby.ST.hit_latency_hist_seqr::total    114743686                      
system.ruby.ST.latency_hist_seqr::bucket_size            1                      
system.ruby.ST.latency_hist_seqr::max_bucket            9                      
system.ruby.ST.latency_hist_seqr::samples    121398038                      
system.ruby.ST.latency_hist_seqr         |   121398038    100.00%    100.00% |           0      0.00%    100.00% |           0      0.00%    100.00% |           0      0.00%    100.00% |           0      0.00%    100.00% |           0      0.00%    100.00% |           0      0.00%    100.00% |           0      0.00%    100.00% |           0      0.00%    100.00% |           0      0.00%    100.00%
system.ruby.ST.latency_hist_seqr::total     121398038                      
system.ruby.ST.miss_latency_hist_seqr::bucket_size            1                      
system.ruby.ST.miss_latency_hist_seqr::max_bucket            9                      
system.ruby.ST.miss_latency_hist_seqr::samples      6654352                      
system.ruby.ST.miss_latency_hist_seqr    |     6654352    100.00%    100.00% |           0      0.00%    100.00% |           0      0.00%    100.00% |           0      0.00%    100.00% |           0      0.00%    100.00% |           0      0.00%    100.00% |           0      0.00%    100.00% |           0      0.00%    100.00% |           0      0.00%    100.00% |           0      0.00%    100.00%
system.ruby.ST.miss_latency_hist_seqr::total      6654352                      
system.ruby.dir_cntrl0.fwdFrom.avg_buf_msgs     0.008531                       # Average number of messages in buffer
system.ruby.dir_cntrl0.fwdFrom.avg_stall_time  2999.987872                       # Average number of cycles messages are stalled in this MB
system.ruby.dir_cntrl0.reqTo.avg_buf_msgs     0.002970                       # Average number of messages in buffer
system.ruby.dir_cntrl0.reqTo.avg_stall_time  5459.852738                       # Average number of cycles messages are stalled in this MB
system.ruby.dir_cntrl0.requestToMemory.avg_buf_msgs     0.002263                       # Average number of messages in buffer
system.ruby.dir_cntrl0.requestToMemory.avg_stall_time   499.999998                       # Average number of cycles messages are stalled in this MB
system.ruby.dir_cntrl0.respFrom.avg_buf_msgs     0.009282                       # Average number of messages in buffer
system.ruby.dir_cntrl0.respFrom.avg_stall_time  3001.114248                       # Average number of cycles messages are stalled in this MB
system.ruby.dir_cntrl0.respTo.avg_buf_msgs     0.000003                       # Average number of messages in buffer
system.ruby.dir_cntrl0.respTo.avg_stall_time  9066.801349                       # Average number of cycles messages are stalled in this MB
system.ruby.dir_cntrl0.responseFromMemory.avg_buf_msgs     0.002267                       # Average number of messages in buffer
system.ruby.dir_cntrl0.responseFromMemory.avg_stall_time   499.999962                       # Average number of cycles messages are stalled in this MB
system.ruby.dir_cntrl1.fwdFrom.avg_buf_msgs     0.008507                       # Average number of messages in buffer
system.ruby.dir_cntrl1.fwdFrom.avg_stall_time  2999.989917                       # Average number of cycles messages are stalled in this MB
system.ruby.dir_cntrl1.reqTo.avg_buf_msgs     0.002971                       # Average number of messages in buffer
system.ruby.dir_cntrl1.reqTo.avg_stall_time  5571.767049                       # Average number of cycles messages are stalled in this MB
system.ruby.dir_cntrl1.requestToMemory.avg_buf_msgs     0.002273                       # Average number of messages in buffer
system.ruby.dir_cntrl1.requestToMemory.avg_stall_time   499.999998                       # Average number of cycles messages are stalled in this MB
system.ruby.dir_cntrl1.respFrom.avg_buf_msgs     0.009289                       # Average number of messages in buffer
system.ruby.dir_cntrl1.respFrom.avg_stall_time  3001.125013                       # Average number of cycles messages are stalled in this MB
system.ruby.dir_cntrl1.respTo.avg_buf_msgs     0.000002                       # Average number of messages in buffer
system.ruby.dir_cntrl1.respTo.avg_stall_time  9412.331187                       # Average number of cycles messages are stalled in this MB
system.ruby.dir_cntrl1.responseFromMemory.avg_buf_msgs     0.002276                       # Average number of messages in buffer
system.ruby.dir_cntrl1.responseFromMemory.avg_stall_time   499.999962                       # Average number of cycles messages are stalled in this MB
system.ruby.dir_cntrl2.fwdFrom.avg_buf_msgs     0.008371                       # Average number of messages in buffer
system.ruby.dir_cntrl2.fwdFrom.avg_stall_time  2999.967079                       # Average number of cycles messages are stalled in this MB
system.ruby.dir_cntrl2.reqTo.avg_buf_msgs     0.002918                       # Average number of messages in buffer
system.ruby.dir_cntrl2.reqTo.avg_stall_time  5447.983144                       # Average number of cycles messages are stalled in this MB
system.ruby.dir_cntrl2.requestToMemory.avg_buf_msgs     0.002235                       # Average number of messages in buffer
system.ruby.dir_cntrl2.requestToMemory.avg_stall_time   499.999862                       # Average number of cycles messages are stalled in this MB
system.ruby.dir_cntrl2.respFrom.avg_buf_msgs     0.009149                       # Average number of messages in buffer
system.ruby.dir_cntrl2.respFrom.avg_stall_time  3002.435542                       # Average number of cycles messages are stalled in this MB
system.ruby.dir_cntrl2.respTo.avg_buf_msgs     0.000003                       # Average number of messages in buffer
system.ruby.dir_cntrl2.respTo.avg_stall_time  9730.064043                       # Average number of cycles messages are stalled in this MB
system.ruby.dir_cntrl2.responseFromMemory.avg_buf_msgs     0.002238                       # Average number of messages in buffer
system.ruby.dir_cntrl2.responseFromMemory.avg_stall_time   499.999826                       # Average number of cycles messages are stalled in this MB
system.ruby.dir_cntrl3.fwdFrom.avg_buf_msgs     0.008271                       # Average number of messages in buffer
system.ruby.dir_cntrl3.fwdFrom.avg_stall_time  2999.993708                       # Average number of cycles messages are stalled in this MB
system.ruby.dir_cntrl3.reqTo.avg_buf_msgs     0.002882                       # Average number of messages in buffer
system.ruby.dir_cntrl3.reqTo.avg_stall_time  5432.239954                       # Average number of cycles messages are stalled in this MB
system.ruby.dir_cntrl3.requestToMemory.avg_buf_msgs     0.002214                       # Average number of messages in buffer
system.ruby.dir_cntrl3.requestToMemory.avg_stall_time   499.999998                       # Average number of cycles messages are stalled in this MB
system.ruby.dir_cntrl3.respFrom.avg_buf_msgs     0.009060                       # Average number of messages in buffer
system.ruby.dir_cntrl3.respFrom.avg_stall_time  3002.740241                       # Average number of cycles messages are stalled in this MB
system.ruby.dir_cntrl3.respTo.avg_buf_msgs     0.000002                       # Average number of messages in buffer
system.ruby.dir_cntrl3.respTo.avg_stall_time 10512.608987                       # Average number of cycles messages are stalled in this MB
system.ruby.dir_cntrl3.responseFromMemory.avg_buf_msgs     0.002218                       # Average number of messages in buffer
system.ruby.dir_cntrl3.responseFromMemory.avg_stall_time   499.999962                       # Average number of cycles messages are stalled in this MB
system.ruby.dma_cntrl0.cache.demand_accesses            0                       # Number of cache demand accesses
system.ruby.dma_cntrl0.cache.demand_hits            0                       # Number of cache demand hits
system.ruby.dma_cntrl0.cache.demand_misses            0                       # Number of cache demand misses
system.ruby.dma_cntrl0.fully_busy_cycles        20956                       # cycles for which number of transistions == max transitions
system.ruby.dma_cntrl0.fwdFrom.avg_buf_msgs     0.000004                       # Average number of messages in buffer
system.ruby.dma_cntrl0.fwdFrom.avg_stall_time  6704.224568                       # Average number of cycles messages are stalled in this MB
system.ruby.dma_cntrl0.mandatoryQueue.avg_buf_msgs     0.000561                       # Average number of messages in buffer
system.ruby.dma_cntrl0.mandatoryQueue.avg_stall_time 80802.983449                       # Average number of cycles messages are stalled in this MB
system.ruby.dma_cntrl0.reqTo.avg_buf_msgs     0.000836                       # Average number of messages in buffer
system.ruby.dma_cntrl0.reqTo.avg_stall_time  4280.536755                       # Average number of cycles messages are stalled in this MB
system.ruby.dma_cntrl0.respFrom.avg_buf_msgs     0.000005                       # Average number of messages in buffer
system.ruby.dma_cntrl0.respFrom.avg_stall_time 133677.680937                       # Average number of cycles messages are stalled in this MB
system.ruby.dma_cntrl0.respTo.avg_buf_msgs     0.000000                       # Average number of messages in buffer
system.ruby.dma_cntrl0.respTo.avg_stall_time   688.150617                       # Average number of cycles messages are stalled in this MB
system.ruby.hit_latency_hist_seqr::bucket_size            1                      
system.ruby.hit_latency_hist_seqr::max_bucket            9                      
system.ruby.hit_latency_hist_seqr::samples   3284849070                      
system.ruby.hit_latency_hist_seqr        |  3284849070    100.00%    100.00% |           0      0.00%    100.00% |           0      0.00%    100.00% |           0      0.00%    100.00% |           0      0.00%    100.00% |           0      0.00%    100.00% |           0      0.00%    100.00% |           0      0.00%    100.00% |           0      0.00%    100.00% |           0      0.00%    100.00%
system.ruby.hit_latency_hist_seqr::total   3284849070                      
system.ruby.io_controller.cache.demand_accesses            0                       # Number of cache demand accesses
system.ruby.io_controller.cache.demand_hits            0                       # Number of cache demand hits
system.ruby.io_controller.cache.demand_misses            0                       # Number of cache demand misses
system.ruby.l1_cntrl0.cache.demand_accesses            0                       # Number of cache demand accesses
system.ruby.l1_cntrl0.cache.demand_hits             0                       # Number of cache demand hits
system.ruby.l1_cntrl0.cache.demand_misses            0                       # Number of cache demand misses
system.ruby.l1_cntrl0.fully_busy_cycles             6                       # cycles for which number of transistions == max transitions
system.ruby.l1_cntrl0.fwdFrom.avg_buf_msgs     0.905350                       # Average number of messages in buffer
system.ruby.l1_cntrl0.fwdFrom.avg_stall_time  6347.051792                       # Average number of cycles messages are stalled in this MB
system.ruby.l1_cntrl0.mandatoryQueue.avg_buf_msgs     0.392641                       # Average number of messages in buffer
system.ruby.l1_cntrl0.mandatoryQueue.avg_stall_time  2549.215588                       # Average number of cycles messages are stalled in this MB
system.ruby.l1_cntrl0.reqTo.avg_buf_msgs     0.003221                       # Average number of messages in buffer
system.ruby.l1_cntrl0.reqTo.avg_stall_time   500.020106                       # Average number of cycles messages are stalled in this MB
system.ruby.l1_cntrl0.respFrom.avg_buf_msgs     0.001707                       # Average number of messages in buffer
system.ruby.l1_cntrl0.respFrom.avg_stall_time 16443.984486                       # Average number of cycles messages are stalled in this MB
system.ruby.l1_cntrl0.respTo.avg_buf_msgs     0.000013                       # Average number of messages in buffer
system.ruby.l1_cntrl0.respTo.avg_stall_time   794.963430                       # Average number of cycles messages are stalled in this MB
system.ruby.l1_cntrl1.cache.demand_accesses            0                       # Number of cache demand accesses
system.ruby.l1_cntrl1.cache.demand_hits             0                       # Number of cache demand hits
system.ruby.l1_cntrl1.cache.demand_misses            0                       # Number of cache demand misses
system.ruby.l1_cntrl1.fully_busy_cycles             6                       # cycles for which number of transistions == max transitions
system.ruby.l1_cntrl1.fwdFrom.avg_buf_msgs     0.001198                       # Average number of messages in buffer
system.ruby.l1_cntrl1.fwdFrom.avg_stall_time  6642.880563                       # Average number of cycles messages are stalled in this MB
system.ruby.l1_cntrl1.mandatoryQueue.avg_buf_msgs     0.367293                       # Average number of messages in buffer
system.ruby.l1_cntrl1.mandatoryQueue.avg_stall_time  2217.179056                       # Average number of cycles messages are stalled in this MB
system.ruby.l1_cntrl1.reqTo.avg_buf_msgs     0.002460                       # Average number of messages in buffer
system.ruby.l1_cntrl1.reqTo.avg_stall_time   500.014722                       # Average number of cycles messages are stalled in this MB
system.ruby.l1_cntrl1.respFrom.avg_buf_msgs     0.001264                       # Average number of messages in buffer
system.ruby.l1_cntrl1.respFrom.avg_stall_time 16746.267718                       # Average number of cycles messages are stalled in this MB
system.ruby.l1_cntrl1.respTo.avg_buf_msgs     0.000005                       # Average number of messages in buffer
system.ruby.l1_cntrl1.respTo.avg_stall_time   549.256254                       # Average number of cycles messages are stalled in this MB
system.ruby.l1_cntrl2.cache.demand_accesses            0                       # Number of cache demand accesses
system.ruby.l1_cntrl2.cache.demand_hits             0                       # Number of cache demand hits
system.ruby.l1_cntrl2.cache.demand_misses            0                       # Number of cache demand misses
system.ruby.l1_cntrl2.fully_busy_cycles             1                       # cycles for which number of transistions == max transitions
system.ruby.l1_cntrl2.fwdFrom.avg_buf_msgs     0.001617                       # Average number of messages in buffer
system.ruby.l1_cntrl2.fwdFrom.avg_stall_time  6490.655363                       # Average number of cycles messages are stalled in this MB
system.ruby.l1_cntrl2.mandatoryQueue.avg_buf_msgs     0.390333                       # Average number of messages in buffer
system.ruby.l1_cntrl2.mandatoryQueue.avg_stall_time  2847.260986                       # Average number of cycles messages are stalled in this MB
system.ruby.l1_cntrl2.reqTo.avg_buf_msgs     0.003346                       # Average number of messages in buffer
system.ruby.l1_cntrl2.reqTo.avg_stall_time   500.019990                       # Average number of cycles messages are stalled in this MB
system.ruby.l1_cntrl2.respFrom.avg_buf_msgs     0.001732                       # Average number of messages in buffer
system.ruby.l1_cntrl2.respFrom.avg_stall_time 16388.644575                       # Average number of cycles messages are stalled in this MB
system.ruby.l1_cntrl2.respTo.avg_buf_msgs     0.000006                       # Average number of messages in buffer
system.ruby.l1_cntrl2.respTo.avg_stall_time   538.708953                       # Average number of cycles messages are stalled in this MB
system.ruby.l1_cntrl3.cache.demand_accesses            0                       # Number of cache demand accesses
system.ruby.l1_cntrl3.cache.demand_hits             0                       # Number of cache demand hits
system.ruby.l1_cntrl3.cache.demand_misses            0                       # Number of cache demand misses
system.ruby.l1_cntrl3.fully_busy_cycles             1                       # cycles for which number of transistions == max transitions
system.ruby.l1_cntrl3.fwdFrom.avg_buf_msgs     0.001274                       # Average number of messages in buffer
system.ruby.l1_cntrl3.fwdFrom.avg_stall_time  6545.705980                       # Average number of cycles messages are stalled in this MB
system.ruby.l1_cntrl3.mandatoryQueue.avg_buf_msgs     0.436740                       # Average number of messages in buffer
system.ruby.l1_cntrl3.mandatoryQueue.avg_stall_time  2273.665388                       # Average number of cycles messages are stalled in this MB
system.ruby.l1_cntrl3.reqTo.avg_buf_msgs     0.002673                       # Average number of messages in buffer
system.ruby.l1_cntrl3.reqTo.avg_stall_time   500.017366                       # Average number of cycles messages are stalled in this MB
system.ruby.l1_cntrl3.respFrom.avg_buf_msgs     0.001400                       # Average number of messages in buffer
system.ruby.l1_cntrl3.respFrom.avg_stall_time 16538.818967                       # Average number of cycles messages are stalled in this MB
system.ruby.l1_cntrl3.respTo.avg_buf_msgs     0.000005                       # Average number of messages in buffer
system.ruby.l1_cntrl3.respTo.avg_stall_time   536.203461                       # Average number of cycles messages are stalled in this MB
system.ruby.latency_hist_seqr::bucket_size            1                      
system.ruby.latency_hist_seqr::max_bucket            9                      
system.ruby.latency_hist_seqr::samples     3299113464                      
system.ruby.latency_hist_seqr            |  3299113464    100.00%    100.00% |           0      0.00%    100.00% |           0      0.00%    100.00% |           0      0.00%    100.00% |           0      0.00%    100.00% |           0      0.00%    100.00% |           0      0.00%    100.00% |           0      0.00%    100.00% |           0      0.00%    100.00% |           0      0.00%    100.00%
system.ruby.latency_hist_seqr::total       3299113464                      
system.ruby.miss_latency_hist_seqr::bucket_size            1                      
system.ruby.miss_latency_hist_seqr::max_bucket            9                      
system.ruby.miss_latency_hist_seqr::samples     14264394                      
system.ruby.miss_latency_hist_seqr       |    14264394    100.00%    100.00% |           0      0.00%    100.00% |           0      0.00%    100.00% |           0      0.00%    100.00% |           0      0.00%    100.00% |           0      0.00%    100.00% |           0      0.00%    100.00% |           0      0.00%    100.00% |           0      0.00%    100.00% |           0      0.00%    100.00%
system.ruby.miss_latency_hist_seqr::total     14264394                      
system.ruby.network.average_flit_latency    16.679468                      
system.ruby.network.average_flit_network_latency    12.584926                      
system.ruby.network.average_flit_queueing_latency     4.094542                      
system.ruby.network.average_flit_vnet_latency |   15.030913                       |    4.992723                       |   11.204716                      
system.ruby.network.average_flit_vqueue_latency |    6.024087                       |    6.000000                       |    1.098234                      
system.ruby.network.average_hops             0.996568                      
system.ruby.network.average_packet_latency    16.221306                      
system.ruby.network.average_packet_network_latency    12.678523                      
system.ruby.network.average_packet_queueing_latency     3.542784                      
system.ruby.network.average_packet_vnet_latency |   25.002395                       |    4.992723                       |    9.923312                      
system.ruby.network.average_packet_vqueue_latency |    6.015955                       |    6.000000                       |    1.071020                      
system.ruby.network.avg_link_utilization     0.177990                      
system.ruby.network.avg_vc_load          |    0.068386     38.42%     38.42% |    0.007829      4.40%     42.82% |    0.007648      4.30%     47.12% |    0.007645      4.30%     51.41% |    0.012601      7.08%     58.49% |    0.001410      0.79%     59.28% |    0.001404      0.79%     60.07% |    0.001404      0.79%     60.86% |    0.051722     29.06%     89.92% |    0.006314      3.55%     93.47% |    0.005827      3.27%     96.74% |    0.005799      3.26%    100.00%
system.ruby.network.avg_vc_load::total       0.177990                      
system.ruby.network.ext_in_link_utilization    138972019                      
system.ruby.network.ext_out_link_utilization    138972019                      
system.ruby.network.flit_network_latency |  1074118563                       |    65593372                       |   609240644                      
system.ruby.network.flit_queueing_latency |   430485098                       |    78826781                       |    59714913                      
system.ruby.network.flits_injected       |    71460634     51.42%     51.42% |    13137796      9.45%     60.87% |    54373589     39.13%    100.00%
system.ruby.network.flits_injected::total    138972019                      
system.ruby.network.flits_received       |    71460634     51.42%     51.42% |    13137796      9.45%     60.87% |    54373589     39.13%    100.00%
system.ruby.network.flits_received::total    138972019                      
system.ruby.network.int_link_utilization    138495026                      
system.ruby.network.packet_network_latency |   357924733                       |    65593372                       |   271742406                      
system.ruby.network.packet_queueing_latency |    86122114                       |    78826781                       |    29329065                      
system.ruby.network.packets_injected     |    14315618     26.11%     26.11% |    13137796     23.96%     50.06% |    27384245     49.94%    100.00%
system.ruby.network.packets_injected::total     54837659                      
system.ruby.network.packets_received     |    14315618     26.11%     26.11% |    13137796     23.96%     50.06% |    27384245     49.94%    100.00%
system.ruby.network.packets_received::total     54837659                      
system.ruby.network.routers0.buffer_reads     71918036                      
system.ruby.network.routers0.buffer_writes     71918036                      
system.ruby.network.routers0.crossbar_activity     71918036                      
system.ruby.network.routers0.sw_input_arbiter_activity     72022728                      
system.ruby.network.routers0.sw_output_arbiter_activity     71918036                      
system.ruby.network.routers1.buffer_reads     65397956                      
system.ruby.network.routers1.buffer_writes     65397956                      
system.ruby.network.routers1.crossbar_activity     65397956                      
system.ruby.network.routers1.sw_input_arbiter_activity     65467464                      
system.ruby.network.routers1.sw_output_arbiter_activity     65397956                      
system.ruby.network.routers2.buffer_reads     73456611                      
system.ruby.network.routers2.buffer_writes     73456611                      
system.ruby.network.routers2.crossbar_activity     73456611                      
system.ruby.network.routers2.sw_input_arbiter_activity     73539431                      
system.ruby.network.routers2.sw_output_arbiter_activity     73456611                      
system.ruby.network.routers3.buffer_reads     66694442                      
system.ruby.network.routers3.buffer_writes     66694442                      
system.ruby.network.routers3.crossbar_activity     66694442                      
system.ruby.network.routers3.sw_input_arbiter_activity     66760825                      
system.ruby.network.routers3.sw_output_arbiter_activity     66694442                      
system.ruby.outstanding_req_hist_seqr::bucket_size            1                      
system.ruby.outstanding_req_hist_seqr::max_bucket            9                      
system.ruby.outstanding_req_hist_seqr::samples   3299113464                      
system.ruby.outstanding_req_hist_seqr::mean     1.001169                      
system.ruby.outstanding_req_hist_seqr::gmean     1.000810                      
system.ruby.outstanding_req_hist_seqr::stdev     0.034166                      
system.ruby.outstanding_req_hist_seqr    |           0      0.00%      0.00% |  3295257951     99.88%     99.88% |     3855513      0.12%    100.00% |           0      0.00%    100.00% |           0      0.00%    100.00% |           0      0.00%    100.00% |           0      0.00%    100.00% |           0      0.00%    100.00% |           0      0.00%    100.00% |           0      0.00%    100.00%
system.ruby.outstanding_req_hist_seqr::total   3299113464                      
system.switch_cpus0.Branches                 75987533                       # Number of branches fetched
system.switch_cpus0.committedInsts          455441216                       # Number of instructions committed
system.switch_cpus0.committedOps            793460841                       # Number of ops (including micro ops) committed
system.switch_cpus0.dtb.rdAccesses          132171096                       # TLB accesses on read requests
system.switch_cpus0.dtb.rdMisses               211240                       # TLB misses on read requests
system.switch_cpus0.dtb.wrAccesses           30244360                       # TLB accesses on write requests
system.switch_cpus0.dtb.wrMisses                39573                       # TLB misses on write requests
system.switch_cpus0.idle_fraction            0.114383                       # Percentage of idle cycles
system.switch_cpus0.itb.rdAccesses                  0                       # TLB accesses on read requests
system.switch_cpus0.itb.rdMisses                    0                       # TLB misses on read requests
system.switch_cpus0.itb.wrAccesses          647742976                       # TLB accesses on write requests
system.switch_cpus0.itb.wrMisses                13382                       # TLB misses on write requests
system.switch_cpus0.kern.inst.arm                   0                       # number of arm instructions executed
system.switch_cpus0.kern.inst.quiesce               0                       # number of quiesce instructions executed
system.switch_cpus0.not_idle_fraction        0.885617                       # Percentage of non-idle cycles
system.switch_cpus0.numCycles              2339656616                       # number of cpu cycles simulated
system.switch_cpus0.numWorkItemsCompleted            0                       # number of work items this cpu completed
system.switch_cpus0.numWorkItemsStarted             0                       # number of work items this cpu started
system.switch_cpus0.num_busy_cycles      2072039737.380311                       # Number of busy cycles
system.switch_cpus0.num_cc_register_reads    392880554                       # number of times the CC registers were read
system.switch_cpus0.num_cc_register_writes    226262945                       # number of times the CC registers were written
system.switch_cpus0.num_conditional_control_insts     63753973                       # number of instructions that are conditional controls
system.switch_cpus0.num_fp_alu_accesses     212622889                       # Number of float alu accesses
system.switch_cpus0.num_fp_insts            212622889                       # number of float instructions
system.switch_cpus0.num_fp_register_reads    318219794                       # number of times the floating registers were read
system.switch_cpus0.num_fp_register_writes    183431478                       # number of times the floating registers were written
system.switch_cpus0.num_func_calls            2258769                       # number of times a function call or return occured
system.switch_cpus0.num_idle_cycles      267616878.619689                       # Number of idle cycles
system.switch_cpus0.num_int_alu_accesses    645481552                       # Number of integer alu accesses
system.switch_cpus0.num_int_insts           645481552                       # number of integer instructions
system.switch_cpus0.num_int_register_reads   1325266438                       # number of times the integer registers were read
system.switch_cpus0.num_int_register_writes    488859438                       # number of times the integer registers were written
system.switch_cpus0.num_load_insts          131230569                       # Number of load instructions
system.switch_cpus0.num_mem_refs            161409991                       # number of memory refs
system.switch_cpus0.num_store_insts          30179422                       # Number of store instructions
system.switch_cpus0.num_vec_alu_accesses            0                       # Number of vector alu accesses
system.switch_cpus0.num_vec_insts                   0                       # number of vector instructions
system.switch_cpus0.num_vec_register_reads            0                       # number of times the vector registers were read
system.switch_cpus0.num_vec_register_writes            0                       # number of times the vector registers were written
system.switch_cpus0.op_class::No_OpClass       945154      0.12%      0.12% # Class of executed instruction
system.switch_cpus0.op_class::IntAlu        494742591     62.35%     62.47% # Class of executed instruction
system.switch_cpus0.op_class::IntMult          440716      0.06%     62.53% # Class of executed instruction
system.switch_cpus0.op_class::IntDiv           457984      0.06%     62.58% # Class of executed instruction
system.switch_cpus0.op_class::FloatAdd       20515094      2.59%     65.17% # Class of executed instruction
system.switch_cpus0.op_class::FloatCmp              0      0.00%     65.17% # Class of executed instruction
system.switch_cpus0.op_class::FloatCvt           1440      0.00%     65.17% # Class of executed instruction
system.switch_cpus0.op_class::FloatMult             0      0.00%     65.17% # Class of executed instruction
system.switch_cpus0.op_class::FloatMultAcc            0      0.00%     65.17% # Class of executed instruction
system.switch_cpus0.op_class::FloatDiv              0      0.00%     65.17% # Class of executed instruction
system.switch_cpus0.op_class::FloatMisc             0      0.00%     65.17% # Class of executed instruction
system.switch_cpus0.op_class::FloatSqrt             0      0.00%     65.17% # Class of executed instruction
system.switch_cpus0.op_class::SimdAdd            1194      0.00%     65.17% # Class of executed instruction
system.switch_cpus0.op_class::SimdAddAcc            0      0.00%     65.17% # Class of executed instruction
system.switch_cpus0.op_class::SimdAlu        32072465      4.04%     69.21% # Class of executed instruction
system.switch_cpus0.op_class::SimdCmp               0      0.00%     69.21% # Class of executed instruction
system.switch_cpus0.op_class::SimdCvt             338      0.00%     69.21% # Class of executed instruction
system.switch_cpus0.op_class::SimdMisc        5930374      0.75%     69.96% # Class of executed instruction
system.switch_cpus0.op_class::SimdMult              0      0.00%     69.96% # Class of executed instruction
system.switch_cpus0.op_class::SimdMultAcc            0      0.00%     69.96% # Class of executed instruction
system.switch_cpus0.op_class::SimdShift           408      0.00%     69.96% # Class of executed instruction
system.switch_cpus0.op_class::SimdShiftAcc            0      0.00%     69.96% # Class of executed instruction
system.switch_cpus0.op_class::SimdDiv               0      0.00%     69.96% # Class of executed instruction
system.switch_cpus0.op_class::SimdSqrt              0      0.00%     69.96% # Class of executed instruction
system.switch_cpus0.op_class::SimdFloatAdd     35465541      4.47%     74.43% # Class of executed instruction
system.switch_cpus0.op_class::SimdFloatAlu            0      0.00%     74.43% # Class of executed instruction
system.switch_cpus0.op_class::SimdFloatCmp        59314      0.01%     74.44% # Class of executed instruction
system.switch_cpus0.op_class::SimdFloatCvt     28452103      3.59%     78.02% # Class of executed instruction
system.switch_cpus0.op_class::SimdFloatDiv       933377      0.12%     78.14% # Class of executed instruction
system.switch_cpus0.op_class::SimdFloatMisc            0      0.00%     78.14% # Class of executed instruction
system.switch_cpus0.op_class::SimdFloatMult     11604612      1.46%     79.60% # Class of executed instruction
system.switch_cpus0.op_class::SimdFloatMultAcc            0      0.00%     79.60% # Class of executed instruction
system.switch_cpus0.op_class::SimdFloatSqrt       431900      0.05%     79.66% # Class of executed instruction
system.switch_cpus0.op_class::SimdReduceAdd            0      0.00%     79.66% # Class of executed instruction
system.switch_cpus0.op_class::SimdReduceAlu            0      0.00%     79.66% # Class of executed instruction
system.switch_cpus0.op_class::SimdReduceCmp            0      0.00%     79.66% # Class of executed instruction
system.switch_cpus0.op_class::SimdFloatReduceAdd            0      0.00%     79.66% # Class of executed instruction
system.switch_cpus0.op_class::SimdFloatReduceCmp            0      0.00%     79.66% # Class of executed instruction
system.switch_cpus0.op_class::SimdAes               0      0.00%     79.66% # Class of executed instruction
system.switch_cpus0.op_class::SimdAesMix            0      0.00%     79.66% # Class of executed instruction
system.switch_cpus0.op_class::SimdSha1Hash            0      0.00%     79.66% # Class of executed instruction
system.switch_cpus0.op_class::SimdSha1Hash2            0      0.00%     79.66% # Class of executed instruction
system.switch_cpus0.op_class::SimdSha256Hash            0      0.00%     79.66% # Class of executed instruction
system.switch_cpus0.op_class::SimdSha256Hash2            0      0.00%     79.66% # Class of executed instruction
system.switch_cpus0.op_class::SimdShaSigma2            0      0.00%     79.66% # Class of executed instruction
system.switch_cpus0.op_class::SimdShaSigma3            0      0.00%     79.66% # Class of executed instruction
system.switch_cpus0.op_class::SimdPredAlu            0      0.00%     79.66% # Class of executed instruction
system.switch_cpus0.op_class::MemRead        82939546     10.45%     90.11% # Class of executed instruction
system.switch_cpus0.op_class::MemWrite       18475248      2.33%     92.44% # Class of executed instruction
system.switch_cpus0.op_class::FloatMemRead     48291023      6.09%     98.52% # Class of executed instruction
system.switch_cpus0.op_class::FloatMemWrite     11704174      1.48%    100.00% # Class of executed instruction
system.switch_cpus0.op_class::IprAccess             0      0.00%    100.00% # Class of executed instruction
system.switch_cpus0.op_class::InstPrefetch            0      0.00%    100.00% # Class of executed instruction
system.switch_cpus0.op_class::total         793464596                       # Class of executed instruction
system.switch_cpus1.Branches                 79351398                       # Number of branches fetched
system.switch_cpus1.committedInsts          429600364                       # Number of instructions committed
system.switch_cpus1.committedOps            754805987                       # Number of ops (including micro ops) committed
system.switch_cpus1.dtb.rdAccesses          135254845                       # TLB accesses on read requests
system.switch_cpus1.dtb.rdMisses               147897                       # TLB misses on read requests
system.switch_cpus1.dtb.wrAccesses           26790713                       # TLB accesses on write requests
system.switch_cpus1.dtb.wrMisses                27298                       # TLB misses on write requests
system.switch_cpus1.idle_fraction            0.192989                       # Percentage of idle cycles
system.switch_cpus1.itb.rdAccesses                  0                       # TLB accesses on read requests
system.switch_cpus1.itb.rdMisses                    0                       # TLB misses on read requests
[...]
system.mem_ctrls1.llc.tags.avg_refs               nan                       # Average number of references to valid blocks.
system.mem_ctrls1.llc.tags.warmup_cycle  101521034645500                       # Cycle when the warmup percentage was hit.
system.mem_ctrls1.llc.tags.occ_blocks::.ruby.dir_cntrl1 53401.199859                       # Average occupied blocks per requestor
system.mem_ctrls1.llc.tags.occ_percent::.ruby.dir_cntrl1     0.203709                       # Average percentage of cache occupancy
system.mem_ctrls1.llc.tags.occ_percent::total     0.203709                       # Average percentage of cache occupancy
system.mem_ctrls1.llc.tags.occ_task_id_blocks::1024        59342                       # Occupied blocks per task id
system.mem_ctrls1.llc.tags.age_task_id_blocks_1024::0            5                       # Occupied blocks per task id
system.mem_ctrls1.llc.tags.age_task_id_blocks_1024::1            2                       # Occupied blocks per task id
system.mem_ctrls1.llc.tags.age_task_id_blocks_1024::2           16                       # Occupied blocks per task id
system.mem_ctrls1.llc.tags.age_task_id_blocks_1024::4        59319                       # Occupied blocks per task id
system.mem_ctrls1.llc.tags.occ_task_id_percent::1024     0.226372                       # Percentage of cache occupancy per task id
system.mem_ctrls1.llc.tags.tag_accesses      85135390                       # Number of tag accesses
system.mem_ctrls1.llc.tags.data_accesses      5317253                       # Number of data accesses
system.mem_ctrls1.llc.tags.power_state.pwrStateResidencyTicks::UNDEFINED 102690874846001                       # Cumulative time (in ticks) in various power states
system.mem_ctrls1.rank1.actEnergy            69372240                       # Energy for activate commands per rank (pJ)
system.mem_ctrls1.rank1.preEnergy            36868425                       # Energy for precharge commands per rank (pJ)
system.mem_ctrls1.rank1.readEnergy          212843400                       # Energy for read commands per rank (pJ)
system.mem_ctrls1.rank1.writeEnergy                 0                       # Energy for write commands per rank (pJ)
system.mem_ctrls1.rank1.refreshEnergy    92345972160.000015                       # Energy for refresh commands per rank (pJ)
system.mem_ctrls1.rank1.actBackEnergy     32433734730                       # Energy for active background per rank (pJ)
system.mem_ctrls1.rank1.preBackEnergy    421906038240                       # Energy for precharge background per rank (pJ)
system.mem_ctrls1.rank1.actPowerDownEnergy            0                       # Energy for active power-down per rank (pJ)
system.mem_ctrls1.rank1.prePowerDownEnergy            0                       # Energy for precharge power-down per rank (pJ)
system.mem_ctrls1.rank1.selfRefreshEnergy            0                       # Energy for self refresh per rank (pJ)
system.mem_ctrls1.rank1.totalEnergy      547004829195                       # Total energy per rank (pJ)
system.mem_ctrls1.rank1.averagePower       467.589331                       # Core power per rank (mW)
system.mem_ctrls1.rank1.totalIdleTime               0                       # Total Idle time Per DRAM Rank
system.mem_ctrls1.rank1.memoryStateTime::IDLE 1096555517750                       # Time in different power states
system.mem_ctrls1.rank1.memoryStateTime::REF  39063440000                       # Time in different power states
system.mem_ctrls1.rank1.memoryStateTime::SREF            0                       # Time in different power states
system.mem_ctrls1.rank1.memoryStateTime::PRE_PDN            0                       # Time in different power states
system.mem_ctrls1.rank1.memoryStateTime::ACT  34221311751                       # Time in different power states
system.mem_ctrls1.rank1.memoryStateTime::ACT_PDN            0                       # Time in different power states
system.mem_ctrls1.rank0.actEnergy            67687200                       # Energy for activate commands per rank (pJ)
system.mem_ctrls1.rank0.preEnergy            35976600                       # Energy for precharge commands per rank (pJ)
system.mem_ctrls1.rank0.readEnergy          210858480                       # Energy for read commands per rank (pJ)
system.mem_ctrls1.rank0.writeEnergy                 0                       # Energy for write commands per rank (pJ)
system.mem_ctrls1.rank0.refreshEnergy    92345972160.000015                       # Energy for refresh commands per rank (pJ)
system.mem_ctrls1.rank0.actBackEnergy     32303339820                       # Energy for active background per rank (pJ)
system.mem_ctrls1.rank0.preBackEnergy    422015804640                       # Energy for precharge background per rank (pJ)
system.mem_ctrls1.rank0.actPowerDownEnergy            0                       # Energy for active power-down per rank (pJ)
system.mem_ctrls1.rank0.prePowerDownEnergy            0                       # Energy for precharge power-down per rank (pJ)
system.mem_ctrls1.rank0.selfRefreshEnergy            0                       # Energy for self refresh per rank (pJ)
system.mem_ctrls1.rank0.totalEnergy      546979638900                       # Total energy per rank (pJ)
system.mem_ctrls1.rank0.averagePower       467.567798                       # Core power per rank (mW)
system.mem_ctrls1.rank0.totalIdleTime               0                       # Total Idle time Per DRAM Rank
system.mem_ctrls1.rank0.memoryStateTime::IDLE 1096843776001                       # Time in different power states
system.mem_ctrls1.rank0.memoryStateTime::REF  39063440000                       # Time in different power states
system.mem_ctrls1.rank0.memoryStateTime::SREF            0                       # Time in different power states
system.mem_ctrls1.rank0.memoryStateTime::PRE_PDN            0                       # Time in different power states
system.mem_ctrls1.rank0.memoryStateTime::ACT  33933053500                       # Time in different power states
system.mem_ctrls1.rank0.memoryStateTime::ACT_PDN            0                       # Time in different power states
system.mem_ctrls1.power_state.pwrStateResidencyTicks::UNDEFINED 102690874846001                       # Cumulative time (in ticks) in various power states
system.cpu_voltage_domain.voltage                   1                       # Voltage in Volts
system.iobus.trans_dist::ReadReq                  906                       # Transaction distribution
system.iobus.trans_dist::ReadResp                 906                       # Transaction distribution
system.iobus.trans_dist::WriteReq                6876                       # Transaction distribution
system.iobus.trans_dist::WriteResp               6876                       # Transaction distribution
system.iobus.pkt_count_system.pc.south_bridge.io_apic.int_master::system.ruby.l1_cntrl1.sequencer.pio-slave-port          364                       # Packet count per connected master and slave (bytes)
system.iobus.pkt_count_system.pc.south_bridge.io_apic.int_master::total          364                       # Packet count per connected master and slave (bytes)
system.iobus.pkt_count_system.ruby.l1_cntrl0.sequencer.mem-master-port::system.pc.south_bridge.ide.pio          306                       # Packet count per connected master and slave (bytes)
system.iobus.pkt_count_system.ruby.l1_cntrl0.sequencer.mem-master-port::system.ruby.l1_cntrl0.sequencer.pio-slave-port         3100                       # Packet count per connected master and slave (bytes)
system.iobus.pkt_count_system.ruby.l1_cntrl0.sequencer.mem-master-port::system.ruby.l1_cntrl1.sequencer.pio-slave-port          158                       # Packet count per connected master and slave (bytes)
system.iobus.pkt_count_system.ruby.l1_cntrl0.sequencer.mem-master-port::system.ruby.l1_cntrl2.sequencer.pio-slave-port          226                       # Packet count per connected master and slave (bytes)
system.iobus.pkt_count_system.ruby.l1_cntrl0.sequencer.mem-master-port::system.ruby.l1_cntrl3.sequencer.pio-slave-port          144                       # Packet count per connected master and slave (bytes)
system.iobus.pkt_count_system.ruby.l1_cntrl0.sequencer.mem-master-port::total         3934                       # Packet count per connected master and slave (bytes)
system.iobus.pkt_count_system.ruby.l1_cntrl1.sequencer.mem-master-port::system.pc.south_bridge.ide.pio          108                       # Packet count per connected master and slave (bytes)
system.iobus.pkt_count_system.ruby.l1_cntrl1.sequencer.mem-master-port::system.pc.com_1.pio         1350                       # Packet count per connected master and slave (bytes)
system.iobus.pkt_count_system.ruby.l1_cntrl1.sequencer.mem-master-port::system.ruby.l1_cntrl0.sequencer.pio-slave-port           44                       # Packet count per connected master and slave (bytes)
system.iobus.pkt_count_system.ruby.l1_cntrl1.sequencer.mem-master-port::system.ruby.l1_cntrl1.sequencer.pio-slave-port         3060                       # Packet count per connected master and slave (bytes)
system.iobus.pkt_count_system.ruby.l1_cntrl1.sequencer.mem-master-port::system.ruby.l1_cntrl2.sequencer.pio-slave-port          110                       # Packet count per connected master and slave (bytes)
system.iobus.pkt_count_system.ruby.l1_cntrl1.sequencer.mem-master-port::system.ruby.l1_cntrl3.sequencer.pio-slave-port            4                       # Packet count per connected master and slave (bytes)
system.iobus.pkt_count_system.ruby.l1_cntrl1.sequencer.mem-master-port::total         4676                       # Packet count per connected master and slave (bytes)
system.iobus.pkt_count_system.ruby.l1_cntrl2.sequencer.mem-master-port::system.pc.com_1.pio           34                       # Packet count per connected master and slave (bytes)
system.iobus.pkt_count_system.ruby.l1_cntrl2.sequencer.mem-master-port::system.ruby.l1_cntrl0.sequencer.pio-slave-port          100                       # Packet count per connected master and slave (bytes)
system.iobus.pkt_count_system.ruby.l1_cntrl2.sequencer.mem-master-port::system.ruby.l1_cntrl1.sequencer.pio-slave-port           64                       # Packet count per connected master and slave (bytes)
system.iobus.pkt_count_system.ruby.l1_cntrl2.sequencer.mem-master-port::system.ruby.l1_cntrl2.sequencer.pio-slave-port         3190                       # Packet count per connected master and slave (bytes)
system.iobus.pkt_count_system.ruby.l1_cntrl2.sequencer.mem-master-port::system.ruby.l1_cntrl3.sequencer.pio-slave-port           48                       # Packet count per connected master and slave (bytes)
system.iobus.pkt_count_system.ruby.l1_cntrl2.sequencer.mem-master-port::total         3436                       # Packet count per connected master and slave (bytes)
system.iobus.pkt_count_system.ruby.l1_cntrl3.sequencer.mem-master-port::system.ruby.l1_cntrl0.sequencer.pio-slave-port           12                       # Packet count per connected master and slave (bytes)
system.iobus.pkt_count_system.ruby.l1_cntrl3.sequencer.mem-master-port::system.ruby.l1_cntrl1.sequencer.pio-slave-port           34                       # Packet count per connected master and slave (bytes)
system.iobus.pkt_count_system.ruby.l1_cntrl3.sequencer.mem-master-port::system.ruby.l1_cntrl2.sequencer.pio-slave-port          118                       # Packet count per connected master and slave (bytes)
system.iobus.pkt_count_system.ruby.l1_cntrl3.sequencer.mem-master-port::system.ruby.l1_cntrl3.sequencer.pio-slave-port         2990                       # Packet count per connected master and slave (bytes)
system.iobus.pkt_count_system.ruby.l1_cntrl3.sequencer.mem-master-port::total         3154                       # Packet count per connected master and slave (bytes)
system.iobus.pkt_count::total                   15564                       # Packet count per connected master and slave (bytes)
system.iobus.pkt_size_system.pc.south_bridge.io_apic.int_master::system.ruby.l1_cntrl1.sequencer.pio-slave-port          728                       # Cumulative packet size per connected master and slave (bytes)
system.iobus.pkt_size_system.pc.south_bridge.io_apic.int_master::total          728                       # Cumulative packet size per connected master and slave (bytes)
system.iobus.pkt_size_system.ruby.l1_cntrl0.sequencer.mem-master-port::system.pc.south_bridge.ide.pio          180                       # Cumulative packet size per connected master and slave (bytes)
system.iobus.pkt_size_system.ruby.l1_cntrl0.sequencer.mem-master-port::system.ruby.l1_cntrl0.sequencer.pio-slave-port         6200                       # Cumulative packet size per connected master and slave (bytes)
system.iobus.pkt_size_system.ruby.l1_cntrl0.sequencer.mem-master-port::system.ruby.l1_cntrl1.sequencer.pio-slave-port          316                       # Cumulative packet size per connected master and slave (bytes)
system.iobus.pkt_size_system.ruby.l1_cntrl0.sequencer.mem-master-port::system.ruby.l1_cntrl2.sequencer.pio-slave-port          452                       # Cumulative packet size per connected master and slave (bytes)
system.iobus.pkt_size_system.ruby.l1_cntrl0.sequencer.mem-master-port::system.ruby.l1_cntrl3.sequencer.pio-slave-port          288                       # Cumulative packet size per connected master and slave (bytes)
system.iobus.pkt_size_system.ruby.l1_cntrl0.sequencer.mem-master-port::total         7436                       # Cumulative packet size per connected master and slave (bytes)
system.iobus.pkt_size_system.ruby.l1_cntrl1.sequencer.mem-master-port::system.pc.south_bridge.ide.pio           54                       # Cumulative packet size per connected master and slave (bytes)
system.iobus.pkt_size_system.ruby.l1_cntrl1.sequencer.mem-master-port::system.pc.com_1.pio          675                       # Cumulative packet size per connected master and slave (bytes)
system.iobus.pkt_size_system.ruby.l1_cntrl1.sequencer.mem-master-port::system.ruby.l1_cntrl0.sequencer.pio-slave-port           88                       # Cumulative packet size per connected master and slave (bytes)
system.iobus.pkt_size_system.ruby.l1_cntrl1.sequencer.mem-master-port::system.ruby.l1_cntrl1.sequencer.pio-slave-port         6120                       # Cumulative packet size per connected master and slave (bytes)
system.iobus.pkt_size_system.ruby.l1_cntrl1.sequencer.mem-master-port::system.ruby.l1_cntrl2.sequencer.pio-slave-port          220                       # Cumulative packet size per connected master and slave (bytes)
system.iobus.pkt_size_system.ruby.l1_cntrl1.sequencer.mem-master-port::system.ruby.l1_cntrl3.sequencer.pio-slave-port            8                       # Cumulative packet size per connected master and slave (bytes)
system.iobus.pkt_size_system.ruby.l1_cntrl1.sequencer.mem-master-port::total         7165                       # Cumulative packet size per connected master and slave (bytes)
system.iobus.pkt_size_system.ruby.l1_cntrl2.sequencer.mem-master-port::system.pc.com_1.pio           17                       # Cumulative packet size per connected master and slave (bytes)
system.iobus.pkt_size_system.ruby.l1_cntrl2.sequencer.mem-master-port::system.ruby.l1_cntrl0.sequencer.pio-slave-port          200                       # Cumulative packet size per connected master and slave (bytes)
system.iobus.pkt_size_system.ruby.l1_cntrl2.sequencer.mem-master-port::system.ruby.l1_cntrl1.sequencer.pio-slave-port          128                       # Cumulative packet size per connected master and slave (bytes)
system.iobus.pkt_size_system.ruby.l1_cntrl2.sequencer.mem-master-port::system.ruby.l1_cntrl2.sequencer.pio-slave-port         6380                       # Cumulative packet size per connected master and slave (bytes)
system.iobus.pkt_size_system.ruby.l1_cntrl2.sequencer.mem-master-port::system.ruby.l1_cntrl3.sequencer.pio-slave-port           96                       # Cumulative packet size per connected master and slave (bytes)
system.iobus.pkt_size_system.ruby.l1_cntrl2.sequencer.mem-master-port::total         6821                       # Cumulative packet size per connected master and slave (bytes)
system.iobus.pkt_size_system.ruby.l1_cntrl3.sequencer.mem-master-port::system.ruby.l1_cntrl0.sequencer.pio-slave-port           24                       # Cumulative packet size per connected master and slave (bytes)
system.iobus.pkt_size_system.ruby.l1_cntrl3.sequencer.mem-master-port::system.ruby.l1_cntrl1.sequencer.pio-slave-port           68                       # Cumulative packet size per connected master and slave (bytes)
system.iobus.pkt_size_system.ruby.l1_cntrl3.sequencer.mem-master-port::system.ruby.l1_cntrl2.sequencer.pio-slave-port          236                       # Cumulative packet size per connected master and slave (bytes)
system.iobus.pkt_size_system.ruby.l1_cntrl3.sequencer.mem-master-port::system.ruby.l1_cntrl3.sequencer.pio-slave-port         5980                       # Cumulative packet size per connected master and slave (bytes)
system.iobus.pkt_size_system.ruby.l1_cntrl3.sequencer.mem-master-port::total         6308                       # Cumulative packet size per connected master and slave (bytes)
system.iobus.pkt_size::total                    28458                       # Cumulative packet size per connected master and slave (bytes)
system.iobus.reqLayer2.occupancy               345000                       # Layer occupancy (ticks)
system.iobus.reqLayer2.utilization                0.0                       # Layer utilization (%)
system.iobus.power_state.pwrStateResidencyTicks::UNDEFINED 102690874846001                       # Cumulative time (in ticks) in various power states
system.iobus.reqLayer19.occupancy             4348604                       # Layer occupancy (ticks)
system.iobus.reqLayer19.utilization               0.0                       # Layer utilization (%)
system.iobus.reqLayer17.occupancy             3788788                       # Layer occupancy (ticks)
system.iobus.reqLayer17.utilization               0.0                       # Layer utilization (%)
system.iobus.reqLayer12.occupancy              893500                       # Layer occupancy (ticks)
system.iobus.reqLayer12.utilization               0.0                       # Layer utilization (%)
system.iobus.reqLayer18.occupancy             4259845                       # Layer occupancy (ticks)
system.iobus.reqLayer18.utilization               0.0                       # Layer utilization (%)
system.iobus.respLayer9.occupancy             2400000                       # Layer occupancy (ticks)
system.iobus.respLayer9.utilization               0.0                       # Layer utilization (%)
system.iobus.respLayer5.occupancy             3704000                       # Layer occupancy (ticks)
system.iobus.respLayer5.utilization               0.0                       # Layer utilization (%)
system.iobus.respLayer7.occupancy             2578000                       # Layer occupancy (ticks)
system.iobus.respLayer7.utilization               0.0                       # Layer utilization (%)
system.iobus.respLayer0.occupancy              273491                       # Layer occupancy (ticks)
system.iobus.respLayer0.utilization               0.0                       # Layer utilization (%)
system.iobus.respLayer3.occupancy             2866500                       # Layer occupancy (ticks)
system.iobus.respLayer3.utilization               0.0                       # Layer utilization (%)
system.iobus.reqLayer20.occupancy             3790580                       # Layer occupancy (ticks)
system.iobus.reqLayer20.utilization               0.0                       # Layer utilization (%)

---------- End Simulation Statistics   ----------
