
---------- Begin Simulation Statistics ----------
final_tick                               101164882152501                       # Number of ticks from beginning of simulation (restored from checkpoints and never reset)
host_inst_rate                                2403635                       # Simulator instruction rate (inst/s)
host_mem_usage                                1770484                       # Number of bytes of host memory used
host_op_rate                                  2479117                       # Simulator op (including micro ops) rate (op/s)
host_seconds                                  2699.90                       # Real time elapsed on the host
host_tick_rate                              104638961                       # Simulator tick rate (ticks/s)
sim_freq                                 1000000000000                       # Frequency of simulated ticks
sim_insts                                  6489578746                       # Number of instructions simulated
sim_ops                                    6693372938                       # Number of ops (including micro ops) simulated
sim_seconds                                  0.282515                       # Number of seconds simulated
sim_ticks                                282514919501                       # Number of ticks simulated
system.cpu0.committedInsts                          0                       # Number of instructions committed
system.cpu0.dtb.rdAccesses                          0                       # TLB accesses on read requests
system.cpu0.dtb.rdMisses                            0                       # TLB misses on read requests
system.cpu0.dtb.wrAccesses                          0                       # TLB accesses on write requests
system.cpu0.dtb.wrMisses                            0                       # TLB misses on write requests
system.cpu0.itb.rdAccesses                          0                       # TLB accesses on read requests
system.cpu0.itb.rdMisses                            0                       # TLB misses on read requests
system.cpu0.itb.wrAccesses                          0                       # TLB accesses on write requests
system.cpu0.itb.wrMisses                            0                       # TLB misses on write requests
system.cpu0.kern.inst.arm                           0                       # number of arm instructions executed
system.cpu0.kern.inst.quiesce                       0                       # number of quiesce instructions executed
system.cpu0.numCoalescedMMIO                        0                       # number of coalesced memory mapped IO requests
system.cpu0.numCycles                               0                       # number of cpu cycles simulated
system.cpu0.numExitSignal                           0                       # exits due to signal delivery
system.cpu0.numHalt                                 0                       # number of VM exits due to wait for interrupt instructions
system.cpu0.numHypercalls                           0                       # number of hypercalls
system.cpu0.numIO                                   0                       # number of VM exits due to legacy IO
system.cpu0.numInterrupts                           0                       # number of interrupts delivered
system.cpu0.numMMIO                                 0                       # number of VM exits due to memory mapped IO
system.cpu0.numVMExits                              0                       # total number of KVM exits
system.cpu0.numVMHalfEntries                        0                       # number of KVM entries to finalize pending operations
system.cpu0.numWorkItemsCompleted                   0                       # number of work items this cpu completed
system.cpu0.numWorkItemsStarted                     0                       # number of work items this cpu started
system.cpu1.committedInsts                          0                       # Number of instructions committed
system.cpu1.dtb.rdAccesses                          0                       # TLB accesses on read requests
system.cpu1.dtb.rdMisses                            0                       # TLB misses on read requests
system.cpu1.dtb.wrAccesses                          0                       # TLB accesses on write requests
system.cpu1.dtb.wrMisses                            0                       # TLB misses on write requests
system.cpu1.itb.rdAccesses                          0                       # TLB accesses on read requests
system.cpu1.itb.rdMisses                            0                       # TLB misses on read requests
system.cpu1.itb.wrAccesses                          0                       # TLB accesses on write requests
system.cpu1.itb.wrMisses                            0                       # TLB misses on write requests
system.cpu1.kern.inst.arm                           0                       # number of arm instructions executed
system.cpu1.kern.inst.quiesce                       0                       # number of quiesce instructions executed
system.cpu1.numCoalescedMMIO                        0                       # number of coalesced memory mapped IO requests
system.cpu1.numCycles                               0                       # number of cpu cycles simulated
system.cpu1.numExitSignal                           0                       # exits due to signal delivery
system.cpu1.numHalt                                 0                       # number of VM exits due to wait for interrupt instructions
system.cpu1.numHypercalls                           0                       # number of hypercalls
system.cpu1.numIO                                   0                       # number of VM exits due to legacy IO
system.cpu1.numInterrupts                           0                       # number of interrupts delivered
system.cpu1.numMMIO                                 0                       # number of VM exits due to memory mapped IO
system.cpu1.numVMExits                              0                       # total number of KVM exits
system.cpu1.numVMHalfEntries                        0                       # number of KVM entries to finalize pending operations
system.cpu1.numWorkItemsCompleted                   0                       # number of work items this cpu completed
system.cpu1.numWorkItemsStarted                     0                       # number of work items this cpu started
system.cpu2.committedInsts                          0                       # Number of instructions committed
system.cpu2.dtb.rdAccesses                          0                       # TLB accesses on read requests
system.cpu2.dtb.rdMisses                            0                       # TLB misses on read requests
system.cpu2.dtb.wrAccesses                          0                       # TLB accesses on write requests
system.cpu2.dtb.wrMisses                            0                       # TLB misses on write requests
system.cpu2.itb.rdAccesses                          0                       # TLB accesses on read requests
system.cpu2.itb.rdMisses                            0                       # TLB misses on read requests
system.cpu2.itb.wrAccesses                          0                       # TLB accesses on write requests
system.cpu2.itb.wrMisses                            0                       # TLB misses on write requests
system.cpu2.kern.inst.arm                           0                       # number of arm instructions executed
system.cpu2.kern.inst.quiesce                       0                       # number of quiesce instructions executed
system.cpu2.numCoalescedMMIO                        0                       # number of coalesced memory mapped IO requests
system.cpu2.numCycles                               0                       # number of cpu cycles simulated
system.cpu2.numExitSignal                           0                       # exits due to signal delivery
system.cpu2.numHalt                                 0                       # number of VM exits due to wait for interrupt instructions
system.cpu2.numHypercalls                           0                       # number of hypercalls
system.cpu2.numIO                                   0                       # number of VM exits due to legacy IO
system.cpu2.numInterrupts                           0                       # number of interrupts delivered
system.cpu2.numMMIO                                 0                       # number of VM exits due to memory mapped IO
system.cpu2.numVMExits                              0                       # total number of KVM exits
system.cpu2.numVMHalfEntries                        0                       # number of KVM entries to finalize pending operations
system.cpu2.numWorkItemsCompleted                   0                       # number of work items this cpu completed
system.cpu2.numWorkItemsStarted                     0                       # number of work items this cpu started
system.cpu3.committedInsts                          0                       # Number of instructions committed
system.cpu3.dtb.rdAccesses                          0                       # TLB accesses on read requests
system.cpu3.dtb.rdMisses                            0                       # TLB misses on read requests
system.cpu3.dtb.wrAccesses                          0                       # TLB accesses on write requests
system.cpu3.dtb.wrMisses                            0                       # TLB misses on write requests
system.cpu3.itb.rdAccesses                          0                       # TLB accesses on read requests
system.cpu3.itb.rdMisses                            0                       # TLB misses on read requests
system.cpu3.itb.wrAccesses                          0                       # TLB accesses on write requests
system.cpu3.itb.wrMisses                            0                       # TLB misses on write requests
system.cpu3.kern.inst.arm                           0                       # number of arm instructions executed
system.cpu3.kern.inst.quiesce                       0                       # number of quiesce instructions executed
system.cpu3.numCoalescedMMIO                        0                       # number of coalesced memory mapped IO requests
system.cpu3.numCycles                               0                       # number of cpu cycles simulated
system.cpu3.numExitSignal                           0                       # exits due to signal delivery
system.cpu3.numHalt                                 0                       # number of VM exits due to wait for interrupt instructions
system.cpu3.numHypercalls                           0                       # number of hypercalls
system.cpu3.numIO                                   0                       # number of VM exits due to legacy IO
system.cpu3.numInterrupts                           0                       # number of interrupts delivered
system.cpu3.numMMIO                                 0                       # number of VM exits due to memory mapped IO
system.cpu3.numVMExits                              0                       # total number of KVM exits
system.cpu3.numVMHalfEntries                        0                       # number of KVM entries to finalize pending operations
system.cpu3.numWorkItemsCompleted                   0                       # number of work items this cpu completed
system.cpu3.numWorkItemsStarted                     0                       # number of work items this cpu started
system.pc.south_bridge.ide.disks.dma_read_bytes       245760                       # Number of bytes transfered via DMA reads (not PRD).
system.pc.south_bridge.ide.disks.dma_read_full_pages           60                       # Number of full page size DMA reads (not PRD).
system.pc.south_bridge.ide.disks.dma_read_txs           60                       # Number of DMA read transactions (not PRD).
system.pc.south_bridge.ide.disks.dma_write_bytes       131072                       # Number of bytes transfered via DMA writes.
system.pc.south_bridge.ide.disks.dma_write_full_pages           32                       # Number of full page size DMA writes.
system.pc.south_bridge.ide.disks.dma_write_txs           32                       # Number of DMA write transactions.
system.ruby.DMA_Controller.I.allocI_load |        3851    100.00%    100.00% |           0      0.00%    100.00%
system.ruby.DMA_Controller.I.allocI_load::total         3851                      
system.ruby.DMA_Controller.I.allocI_store |        2048    100.00%    100.00% |           0      0.00%    100.00%
system.ruby.DMA_Controller.I.allocI_store::total         2048                      
system.ruby.DMA_Controller.I.deallocfwdfrom_in |        4875    100.00%    100.00% |           0      0.00%    100.00%
system.ruby.DMA_Controller.I.deallocfwdfrom_in::total         4875                      
system.ruby.DMA_Controller.M.allocTBE    |        1033    100.00%    100.00% |           0      0.00%    100.00%
system.ruby.DMA_Controller.M.allocTBE::total         1033                      
system.ruby.DMA_Controller.M.externalstoreMrespfrom_in |        2048    100.00%    100.00% |           0      0.00%    100.00%
system.ruby.DMA_Controller.M.externalstoreMrespfrom_in::total         2048                      
system.ruby.DMA_Controller.M_evict.Stallmandatory_in |       56121    100.00%    100.00% |           0      0.00%    100.00%
system.ruby.DMA_Controller.M_evict.Stallmandatory_in::total        56121                      
system.ruby.DMA_Controller.S.SloadSEvent |          52    100.00%    100.00% |           0      0.00%    100.00%
system.ruby.DMA_Controller.S.SloadSEvent::total           52                      
system.ruby.DMA_Controller.S.allocTBE    |        3851    100.00%    100.00% |           0      0.00%    100.00%
system.ruby.DMA_Controller.S.allocTBE::total         3851                      
system.ruby.DMA_Controller.S.deallocTBE  |           8    100.00%    100.00% |           0      0.00%    100.00%
system.ruby.DMA_Controller.S.deallocTBE::total            8                      
system.ruby.DMA_Controller.S.externalloadSrespfrom_in |        3851    100.00%    100.00% |           0      0.00%    100.00%
system.ruby.DMA_Controller.S.externalloadSrespfrom_in::total         3851                      
system.ruby.DMA_Controller.S_evict.Stallmandatory_in |       11530    100.00%    100.00% |           0      0.00%    100.00%
system.ruby.DMA_Controller.S_evict.Stallmandatory_in::total        11530                      
system.ruby.DMA_Controller.SloadSEvent   |          52    100.00%    100.00% |           0      0.00%    100.00%
system.ruby.DMA_Controller.SloadSEvent::total           52                      
system.ruby.DMA_Controller.Stallmandatory_in |       67651    100.00%    100.00% |           0      0.00%    100.00%
system.ruby.DMA_Controller.Stallmandatory_in::total        67651                      
system.ruby.DMA_Controller.allocI_load   |        3851    100.00%    100.00% |           0      0.00%    100.00%
system.ruby.DMA_Controller.allocI_load::total         3851                      
system.ruby.DMA_Controller.allocI_store  |        2048    100.00%    100.00% |           0      0.00%    100.00%
system.ruby.DMA_Controller.allocI_store::total         2048                      
system.ruby.DMA_Controller.allocTBE      |        4884    100.00%    100.00% |           0      0.00%    100.00%
system.ruby.DMA_Controller.allocTBE::total         4884                      
system.ruby.DMA_Controller.deallocTBE    |           8    100.00%    100.00% |           0      0.00%    100.00%
system.ruby.DMA_Controller.deallocTBE::total            8                      
system.ruby.DMA_Controller.deallocfwdfrom_in |        4875    100.00%    100.00% |           0      0.00%    100.00%
system.ruby.DMA_Controller.deallocfwdfrom_in::total         4875                      
system.ruby.DMA_Controller.externalloadSrespfrom_in |        3851    100.00%    100.00% |           0      0.00%    100.00%
system.ruby.DMA_Controller.externalloadSrespfrom_in::total         3851                      
system.ruby.DMA_Controller.externalstoreMrespfrom_in |        2048    100.00%    100.00% |           0      0.00%    100.00%
system.ruby.DMA_Controller.externalstoreMrespfrom_in::total         2048                      
system.ruby.Directory_Controller.I.allocTBE |     1662906     25.09%     25.09% |     1698380     25.63%     50.72% |     1629963     24.59%     75.31% |     1636483     24.69%    100.00%
system.ruby.Directory_Controller.I.allocTBE::total      6627732                      
system.ruby.Directory_Controller.I.deallocTBE |     1662069     25.09%     25.09% |     1697535     25.63%     50.72% |     1629136     24.59%     75.31% |     1635655     24.69%    100.00%
system.ruby.Directory_Controller.I.deallocTBE::total      6624395                      
system.ruby.Directory_Controller.I_GetML1C1_0.Stallreqto_in |           0      0.00%      0.00% |           0      0.00%      0.00% |           1    100.00%    100.00% |           0      0.00%    100.00%
system.ruby.Directory_Controller.I_GetML1C1_0.Stallreqto_in::total            1                      
system.ruby.Directory_Controller.I_GetSL1C1_0.Stallreqto_in |         919     24.51%     24.51% |         995     26.53%     51.04% |         887     23.65%     74.69% |         949     25.31%    100.00%
system.ruby.Directory_Controller.I_GetSL1C1_0.Stallreqto_in::total         3750                      
system.ruby.Directory_Controller.M.allocTBE |      674837     25.30%     25.30% |      708279     26.55%     51.85% |      642758     24.10%     75.95% |      641590     24.05%    100.00%
system.ruby.Directory_Controller.M.allocTBE::total      2667464                      
system.ruby.Directory_Controller.M.deallocTBE |      675220     25.30%     25.30% |      708660     26.55%     51.85% |      643154     24.10%     75.95% |      641972     24.05%    100.00%
system.ruby.Directory_Controller.M.deallocTBE::total      2669006                      
system.ruby.Directory_Controller.M_GetS.Progress |        1496     31.99%     31.99% |        1069     22.86%     54.85% |        1209     25.86%     80.71% |         902     19.29%    100.00%
system.ruby.Directory_Controller.M_GetS.Progress::total         4676                      
system.ruby.Directory_Controller.M_GetS.Stallreqto_in |          36     13.74%     13.74% |          32     12.21%     25.95% |         123     46.95%     72.90% |          71     27.10%    100.00%
system.ruby.Directory_Controller.M_GetS.Stallreqto_in::total          262                      
system.ruby.Directory_Controller.M_GetS_WBL1C1_0.Stallreqto_in |          88     13.31%     13.31% |         122     18.46%     31.77% |         308     46.60%     78.37% |         143     21.63%    100.00%
system.ruby.Directory_Controller.M_GetS_WBL1C1_0.Stallreqto_in::total          661                      
system.ruby.Directory_Controller.M_PutML1C1_0.Stallreqto_in |           0      0.00%      0.00% |           4    100.00%    100.00% |           0      0.00%    100.00% |           0      0.00%    100.00%
system.ruby.Directory_Controller.M_PutML1C1_0.Stallreqto_in::total            4                      
system.ruby.Directory_Controller.Progress |        1496     31.99%     31.99% |        1069     22.86%     54.85% |        1209     25.86%     80.71% |         902     19.29%    100.00%
system.ruby.Directory_Controller.Progress::total         4676                      
system.ruby.Directory_Controller.S.allocTBE |     2165131     25.26%     25.26% |     2094262     24.43%     49.69% |     2090232     24.38%     74.07% |     2222609     25.93%    100.00%
system.ruby.Directory_Controller.S.allocTBE::total      8572234                      
system.ruby.Directory_Controller.S.deallocTBE |     2165585     25.26%     25.26% |     2094726     24.43%     49.69% |     2090663     24.38%     74.07% |     2223054     25.93%    100.00%
system.ruby.Directory_Controller.S.deallocTBE::total      8574028                      
system.ruby.Directory_Controller.S_GetML1C1_0.Stallreqto_in |           0      0.00%      0.00% |           2     18.18%     18.18% |           0      0.00%     18.18% |           9     81.82%    100.00%
system.ruby.Directory_Controller.S_GetML1C1_0.Stallreqto_in::total           11                      
system.ruby.Directory_Controller.S_GetML1C1_1.Stallreqto_in |           0      0.00%      0.00% |           0      0.00%      0.00% |           0      0.00%      0.00% |           2    100.00%    100.00%
system.ruby.Directory_Controller.S_GetML1C1_1.Stallreqto_in::total            2                      
system.ruby.Directory_Controller.S_GetML1C1_2.Stallreqto_in |           0      0.00%      0.00% |           0      0.00%      0.00% |           3    100.00%    100.00% |           0      0.00%    100.00%
system.ruby.Directory_Controller.S_GetML1C1_2.Stallreqto_in::total            3                      
system.ruby.Directory_Controller.S_GetSL1C1_0.Stallreqto_in |        1801     24.08%     24.08% |        1773     23.71%     47.79% |        1293     17.29%     65.08% |        2612     34.92%    100.00%
system.ruby.Directory_Controller.S_GetSL1C1_0.Stallreqto_in::total         7479                      
system.ruby.Directory_Controller.Stallreqto_in |        2844     23.36%     23.36% |        2928     24.05%     47.42% |        2615     21.48%     68.90% |        3786     31.10%    100.00%
system.ruby.Directory_Controller.Stallreqto_in::total        12173                      
system.ruby.Directory_Controller.allocTBE |     4502874     25.20%     25.20% |     4500921     25.19%     50.39% |     4362953     24.42%     74.81% |     4500682     25.19%    100.00%
system.ruby.Directory_Controller.allocTBE::total     17867430                      
system.ruby.Directory_Controller.deallocTBE |     4502874     25.20%     25.20% |     4500921     25.19%     50.39% |     4362953     24.42%     74.81% |     4500681     25.19%    100.00%
system.ruby.Directory_Controller.deallocTBE::total     17867429                      
system.ruby.IFETCH.hit_latency_hist_seqr::bucket_size            1                      
system.ruby.IFETCH.hit_latency_hist_seqr::max_bucket            9                      
system.ruby.IFETCH.hit_latency_hist_seqr::samples    388056765                      
system.ruby.IFETCH.hit_latency_hist_seqr |   388056765    100.00%    100.00% |           0      0.00%    100.00% |           0      0.00%    100.00% |           0      0.00%    100.00% |           0      0.00%    100.00% |           0      0.00%    100.00% |           0      0.00%    100.00% |           0      0.00%    100.00% |           0      0.00%    100.00% |           0      0.00%    100.00%
system.ruby.IFETCH.hit_latency_hist_seqr::total    388056765                      
system.ruby.IFETCH.latency_hist_seqr::bucket_size            1                      
system.ruby.IFETCH.latency_hist_seqr::max_bucket            9                      
system.ruby.IFETCH.latency_hist_seqr::samples    388927945                      
system.ruby.IFETCH.latency_hist_seqr     |   388927945    100.00%    100.00% |           0      0.00%    100.00% |           0      0.00%    100.00% |           0      0.00%    100.00% |           0      0.00%    100.00% |           0      0.00%    100.00% |           0      0.00%    100.00% |           0      0.00%    100.00% |           0      0.00%    100.00% |           0      0.00%    100.00%
system.ruby.IFETCH.latency_hist_seqr::total    388927945                      
system.ruby.IFETCH.miss_latency_hist_seqr::bucket_size            1                      
system.ruby.IFETCH.miss_latency_hist_seqr::max_bucket            9                      
system.ruby.IFETCH.miss_latency_hist_seqr::samples       871180                      
system.ruby.IFETCH.miss_latency_hist_seqr |      871180    100.00%    100.00% |           0      0.00%    100.00% |           0      0.00%    100.00% |           0      0.00%    100.00% |           0      0.00%    100.00% |           0      0.00%    100.00% |           0      0.00%    100.00% |           0      0.00%    100.00% |           0      0.00%    100.00% |           0      0.00%    100.00%
system.ruby.IFETCH.miss_latency_hist_seqr::total       871180                      
system.ruby.L1Cache_Controller.I.allocI_load |     1854912     29.23%     29.23% |     1480387     23.33%     52.56% |     1525649     24.04%     76.61% |     1484520     23.39%    100.00%
system.ruby.L1Cache_Controller.I.allocI_load::total      6345468                      
system.ruby.L1Cache_Controller.I.allocI_store |      726783     28.75%     28.75% |      599162     23.70%     52.45% |      601968     23.81%     76.26% |      600141     23.74%    100.00%
system.ruby.L1Cache_Controller.I.allocI_store::total      2528054                      
system.ruby.L1Cache_Controller.I.deallocfwdfrom_in |     2580681     29.10%     29.10% |     2078544     23.43%     52.53% |     2126615     23.98%     76.51% |     2083643     23.49%    100.00%
system.ruby.L1Cache_Controller.I.deallocfwdfrom_in::total      8869483                      
system.ruby.L1Cache_Controller.I_store.Progress |        1613     72.76%     72.76% |         202      9.11%     81.87% |         214      9.65%     91.52% |         188      8.48%    100.00%
system.ruby.L1Cache_Controller.I_store.Progress::total         2217                      
system.ruby.L1Cache_Controller.I_store.Stallfwdfrom_in |           6     22.22%     22.22% |           6     22.22%     44.44% |           5     18.52%     62.96% |          10     37.04%    100.00%
system.ruby.L1Cache_Controller.I_store.Stallfwdfrom_in::total           27                      
system.ruby.L1Cache_Controller.I_store_GetM_Ack_AD.Progress |           1    100.00%    100.00% |           0      0.00%    100.00% |           0      0.00%    100.00% |           0      0.00%    100.00%
system.ruby.L1Cache_Controller.I_store_GetM_Ack_AD.Progress::total            1                      
system.ruby.L1Cache_Controller.M.MloadMEvent |     5350280     25.12%     25.12% |     5300609     24.89%     50.01% |     5338200     25.07%     75.08% |     5307565     24.92%    100.00%
system.ruby.L1Cache_Controller.M.MloadMEvent::total     21296654                      
system.ruby.L1Cache_Controller.M.MstoreMEvent |     6528663     24.79%     24.79% |     6576500     24.97%     49.76% |     6633749     25.19%     74.94% |     6600314     25.06%    100.00%
system.ruby.L1Cache_Controller.M.MstoreMEvent::total     26339226                      
system.ruby.L1Cache_Controller.M.allocTBE |      762114     28.58%     28.58% |      633328     23.75%     52.33% |      636970     23.89%     76.22% |      634007     23.78%    100.00%
system.ruby.L1Cache_Controller.M.allocTBE::total      2666419                      
system.ruby.L1Cache_Controller.M.externalstoreMrespfrom_in |      762283     28.58%     28.58% |      633446     23.75%     52.33% |      637079     23.89%     76.22% |      634138     23.78%    100.00%
system.ruby.L1Cache_Controller.M.externalstoreMrespfrom_in::total      2666946                      
system.ruby.L1Cache_Controller.M_evict.Stallmandatory_in |        1094     31.41%     31.41% |         986     28.31%     59.72% |         672     19.29%     79.01% |         731     20.99%    100.00%
system.ruby.L1Cache_Controller.M_evict.Stallmandatory_in::total         3483                      
system.ruby.L1Cache_Controller.M_evict_x_I.Progress |           1     16.67%     16.67% |           3     50.00%     66.67% |           2     33.33%    100.00% |           0      0.00%    100.00%
system.ruby.L1Cache_Controller.M_evict_x_I.Progress::total            6                      
system.ruby.L1Cache_Controller.M_evict_x_I.Stallmandatory_in |           1      8.33%      8.33% |           8     66.67%     75.00% |           3     25.00%    100.00% |           0      0.00%    100.00%
system.ruby.L1Cache_Controller.M_evict_x_I.Stallmandatory_in::total           12                      
system.ruby.L1Cache_Controller.MloadMEvent |     5350280     25.12%     25.12% |     5300609     24.89%     50.01% |     5338200     25.07%     75.08% |     5307565     24.92%    100.00%
system.ruby.L1Cache_Controller.MloadMEvent::total     21296654                      
system.ruby.L1Cache_Controller.MstoreMEvent |     6528663     24.79%     24.79% |     6576500     24.97%     49.76% |     6633749     25.19%     74.94% |     6600314     25.06%    100.00%
system.ruby.L1Cache_Controller.MstoreMEvent::total     26339226                      
system.ruby.L1Cache_Controller.Progress  |       38771     26.74%     26.74% |       35280     24.33%     51.07% |       36085     24.89%     75.95% |       34870     24.05%    100.00%
system.ruby.L1Cache_Controller.Progress::total       145006                      
system.ruby.L1Cache_Controller.S.SloadSEvent |   112312529     24.84%     24.84% |   112535207     24.89%     49.73% |   114397518     25.30%     75.04% |   112849596     24.96%    100.00%
system.ruby.L1Cache_Controller.S.SloadSEvent::total    452094850                      
system.ruby.L1Cache_Controller.S.allocTBE |     1856372     29.25%     29.25% |     1480310     23.32%     52.57% |     1525636     24.04%     76.61% |     1484306     23.39%    100.00%
system.ruby.L1Cache_Controller.S.allocTBE::total      6346624                      
system.ruby.L1Cache_Controller.S.deallocTBE |        2305     49.39%     49.39% |         810     17.36%     66.75% |         880     18.86%     85.60% |         672     14.40%    100.00%
system.ruby.L1Cache_Controller.S.deallocTBE::total         4667                      
system.ruby.L1Cache_Controller.S.externalloadSrespfrom_in |     1854912     29.23%     29.23% |     1480386     23.33%     52.56% |     1525649     24.04%     76.61% |     1484520     23.39%    100.00%
system.ruby.L1Cache_Controller.S.externalloadSrespfrom_in::total      6345467                      
system.ruby.L1Cache_Controller.S_evict.Progress |           1    100.00%    100.00% |           0      0.00%    100.00% |           0      0.00%    100.00% |           0      0.00%    100.00%
system.ruby.L1Cache_Controller.S_evict.Progress::total            1                      
system.ruby.L1Cache_Controller.S_evict.Stallmandatory_in |         821     29.72%     29.72% |         816     29.54%     59.27% |         544     19.70%     78.96% |         581     21.04%    100.00%
system.ruby.L1Cache_Controller.S_evict.Stallmandatory_in::total         2762                      
system.ruby.L1Cache_Controller.S_evict_x_I.Progress |           2     33.33%     33.33% |           2     33.33%     66.67% |           0      0.00%     66.67% |           2     33.33%    100.00%
system.ruby.L1Cache_Controller.S_evict_x_I.Progress::total            6                      
system.ruby.L1Cache_Controller.S_evict_x_I.Stallmandatory_in |           4     40.00%     40.00% |           3     30.00%     70.00% |           0      0.00%     70.00% |           3     30.00%    100.00%
system.ruby.L1Cache_Controller.S_evict_x_I.Stallmandatory_in::total           10                      
system.ruby.L1Cache_Controller.S_store.Progress |       37152     26.02%     26.02% |       35071     24.57%     50.59% |       35867     25.12%     75.71% |       34677     24.29%    100.00%
system.ruby.L1Cache_Controller.S_store.Progress::total       142767                      
system.ruby.L1Cache_Controller.S_store.Stallfwdfrom_in |          10     34.48%     34.48% |           8     27.59%     62.07% |           6     20.69%     82.76% |           5     17.24%    100.00%
system.ruby.L1Cache_Controller.S_store.Stallfwdfrom_in::total           29                      
system.ruby.L1Cache_Controller.S_store_GetM_Ack_AD.Progress |           1     12.50%     12.50% |           2     25.00%     37.50% |           2     25.00%     62.50% |           3     37.50%    100.00%
system.ruby.L1Cache_Controller.S_store_GetM_Ack_AD.Progress::total            8                      
system.ruby.L1Cache_Controller.S_store_GetM_Ack_AD.Stallfwdfrom_in |           1    100.00%    100.00% |           0      0.00%    100.00% |           0      0.00%    100.00% |           0      0.00%    100.00%
system.ruby.L1Cache_Controller.S_store_GetM_Ack_AD.Stallfwdfrom_in::total            1                      
system.ruby.L1Cache_Controller.SloadSEvent |   112312529     24.84%     24.84% |   112535207     24.89%     49.73% |   114397518     25.30%     75.04% |   112849596     24.96%    100.00%
system.ruby.L1Cache_Controller.SloadSEvent::total    452094850                      
system.ruby.L1Cache_Controller.Stallfwdfrom_in |          17     29.82%     29.82% |          14     24.56%     54.39% |          11     19.30%     73.68% |          15     26.32%    100.00%
system.ruby.L1Cache_Controller.Stallfwdfrom_in::total           57                      
system.ruby.L1Cache_Controller.Stallmandatory_in |        1920     30.64%     30.64% |        1813     28.93%     59.57% |        1219     19.45%     79.02% |        1315     20.98%    100.00%
system.ruby.L1Cache_Controller.Stallmandatory_in::total         6267                      
system.ruby.L1Cache_Controller.allocI_load |     1854912     29.23%     29.23% |     1480387     23.33%     52.56% |     1525649     24.04%     76.61% |     1484520     23.39%    100.00%
system.ruby.L1Cache_Controller.allocI_load::total      6345468                      
system.ruby.L1Cache_Controller.allocI_store |      726783     28.75%     28.75% |      599162     23.70%     52.45% |      601968     23.81%     76.26% |      600141     23.74%    100.00%
system.ruby.L1Cache_Controller.allocI_store::total      2528054                      
system.ruby.L1Cache_Controller.allocTBE  |     2618486     29.05%     29.05% |     2113638     23.45%     52.50% |     2162606     23.99%     76.50% |     2118313     23.50%    100.00%
system.ruby.L1Cache_Controller.allocTBE::total      9013043                      
system.ruby.L1Cache_Controller.deallocTBE |        2305     49.39%     49.39% |         810     17.36%     66.75% |         880     18.86%     85.60% |         672     14.40%    100.00%
system.ruby.L1Cache_Controller.deallocTBE::total         4667                      
system.ruby.L1Cache_Controller.deallocfwdfrom_in |     2580681     29.10%     29.10% |     2078544     23.43%     52.53% |     2126615     23.98%     76.51% |     2083643     23.49%    100.00%
system.ruby.L1Cache_Controller.deallocfwdfrom_in::total      8869483                      
system.ruby.L1Cache_Controller.externalloadSrespfrom_in |     1854912     29.23%     29.23% |     1480386     23.33%     52.56% |     1525649     24.04%     76.61% |     1484520     23.39%    100.00%
system.ruby.L1Cache_Controller.externalloadSrespfrom_in::total      6345467                      
system.ruby.L1Cache_Controller.externalstoreMrespfrom_in |      762283     28.58%     28.58% |      633446     23.75%     52.33% |      637079     23.89%     76.22% |      634138     23.78%    100.00%
system.ruby.L1Cache_Controller.externalstoreMrespfrom_in::total      2666946                      
system.ruby.LD.hit_latency_hist_seqr::bucket_size            1                      
system.ruby.LD.hit_latency_hist_seqr::max_bucket            9                      
system.ruby.LD.hit_latency_hist_seqr::samples     85334739                      
system.ruby.LD.hit_latency_hist_seqr     |    85334739    100.00%    100.00% |           0      0.00%    100.00% |           0      0.00%    100.00% |           0      0.00%    100.00% |           0      0.00%    100.00% |           0      0.00%    100.00% |           0      0.00%    100.00% |           0      0.00%    100.00% |           0      0.00%    100.00% |           0      0.00%    100.00%
system.ruby.LD.hit_latency_hist_seqr::total     85334739                      
system.ruby.LD.latency_hist_seqr::bucket_size            1                      
system.ruby.LD.latency_hist_seqr::max_bucket            9                      
system.ruby.LD.latency_hist_seqr::samples     90809026                      
system.ruby.LD.latency_hist_seqr         |    90809026    100.00%    100.00% |           0      0.00%    100.00% |           0      0.00%    100.00% |           0      0.00%    100.00% |           0      0.00%    100.00% |           0      0.00%    100.00% |           0      0.00%    100.00% |           0      0.00%    100.00% |           0      0.00%    100.00% |           0      0.00%    100.00%
system.ruby.LD.latency_hist_seqr::total      90809026                      
system.ruby.LD.miss_latency_hist_seqr::bucket_size            1                      
system.ruby.LD.miss_latency_hist_seqr::max_bucket            9                      
system.ruby.LD.miss_latency_hist_seqr::samples      5474287                      
system.ruby.LD.miss_latency_hist_seqr    |     5474287    100.00%    100.00% |           0      0.00%    100.00% |           0      0.00%    100.00% |           0      0.00%    100.00% |           0      0.00%    100.00% |           0      0.00%    100.00% |           0      0.00%    100.00% |           0      0.00%    100.00% |           0      0.00%    100.00% |           0      0.00%    100.00%
system.ruby.LD.miss_latency_hist_seqr::total      5474287                      
system.ruby.Locked_RMW_Read.hit_latency_hist_seqr::bucket_size            1                      
system.ruby.Locked_RMW_Read.hit_latency_hist_seqr::max_bucket            9                      
system.ruby.Locked_RMW_Read.hit_latency_hist_seqr::samples      2649115                      
system.ruby.Locked_RMW_Read.hit_latency_hist_seqr |     2649115    100.00%    100.00% |           0      0.00%    100.00% |           0      0.00%    100.00% |           0      0.00%    100.00% |           0      0.00%    100.00% |           0      0.00%    100.00% |           0      0.00%    100.00% |           0      0.00%    100.00% |           0      0.00%    100.00% |           0      0.00%    100.00%
system.ruby.Locked_RMW_Read.hit_latency_hist_seqr::total      2649115                      
system.ruby.Locked_RMW_Read.latency_hist_seqr::bucket_size            1                      
system.ruby.Locked_RMW_Read.latency_hist_seqr::max_bucket            9                      
system.ruby.Locked_RMW_Read.latency_hist_seqr::samples      5028811                      
system.ruby.Locked_RMW_Read.latency_hist_seqr |     5028811    100.00%    100.00% |           0      0.00%    100.00% |           0      0.00%    100.00% |           0      0.00%    100.00% |           0      0.00%    100.00% |           0      0.00%    100.00% |           0      0.00%    100.00% |           0      0.00%    100.00% |           0      0.00%    100.00% |           0      0.00%    100.00%
system.ruby.Locked_RMW_Read.latency_hist_seqr::total      5028811                      
system.ruby.Locked_RMW_Read.miss_latency_hist_seqr::bucket_size            1                      
system.ruby.Locked_RMW_Read.miss_latency_hist_seqr::max_bucket            9                      
system.ruby.Locked_RMW_Read.miss_latency_hist_seqr::samples      2379696                      
system.ruby.Locked_RMW_Read.miss_latency_hist_seqr |     2379696    100.00%    100.00% |           0      0.00%    100.00% |           0      0.00%    100.00% |           0      0.00%    100.00% |           0      0.00%    100.00% |           0      0.00%    100.00% |           0      0.00%    100.00% |           0      0.00%    100.00% |           0      0.00%    100.00% |           0      0.00%    100.00%
system.ruby.Locked_RMW_Read.miss_latency_hist_seqr::total      2379696                      
system.ruby.Locked_RMW_Write.hit_latency_hist_seqr::bucket_size            1                      
system.ruby.Locked_RMW_Write.hit_latency_hist_seqr::max_bucket            9                      
system.ruby.Locked_RMW_Write.hit_latency_hist_seqr::samples      5028811                      
system.ruby.Locked_RMW_Write.hit_latency_hist_seqr |     5028811    100.00%    100.00% |           0      0.00%    100.00% |           0      0.00%    100.00% |           0      0.00%    100.00% |           0      0.00%    100.00% |           0      0.00%    100.00% |           0      0.00%    100.00% |           0      0.00%    100.00% |           0      0.00%    100.00% |           0      0.00%    100.00%
system.ruby.Locked_RMW_Write.hit_latency_hist_seqr::total      5028811                      
system.ruby.Locked_RMW_Write.latency_hist_seqr::bucket_size            1                      
system.ruby.Locked_RMW_Write.latency_hist_seqr::max_bucket            9                      
system.ruby.Locked_RMW_Write.latency_hist_seqr::samples      5028811                      
system.ruby.Locked_RMW_Write.latency_hist_seqr |     5028811    100.00%    100.00% |           0      0.00%    100.00% |           0      0.00%    100.00% |           0      0.00%    100.00% |           0      0.00%    100.00% |           0      0.00%    100.00% |           0      0.00%    100.00% |           0      0.00%    100.00% |           0      0.00%    100.00% |           0      0.00%    100.00%
system.ruby.Locked_RMW_Write.latency_hist_seqr::total      5028811                      
system.ruby.RMW_Read.hit_latency_hist_seqr::bucket_size            1                      
system.ruby.RMW_Read.hit_latency_hist_seqr::max_bucket            9                      
system.ruby.RMW_Read.hit_latency_hist_seqr::samples       131654                      
system.ruby.RMW_Read.hit_latency_hist_seqr |      131654    100.00%    100.00% |           0      0.00%    100.00% |           0      0.00%    100.00% |           0      0.00%    100.00% |           0      0.00%    100.00% |           0      0.00%    100.00% |           0      0.00%    100.00% |           0      0.00%    100.00% |           0      0.00%    100.00% |           0      0.00%    100.00%
system.ruby.RMW_Read.hit_latency_hist_seqr::total       131654                      
system.ruby.RMW_Read.latency_hist_seqr::bucket_size            1                      
system.ruby.RMW_Read.latency_hist_seqr::max_bucket            9                      
system.ruby.RMW_Read.latency_hist_seqr::samples       147391                      
system.ruby.RMW_Read.latency_hist_seqr   |      147391    100.00%    100.00% |           0      0.00%    100.00% |           0      0.00%    100.00% |           0      0.00%    100.00% |           0      0.00%    100.00% |           0      0.00%    100.00% |           0      0.00%    100.00% |           0      0.00%    100.00% |           0      0.00%    100.00% |           0      0.00%    100.00%
system.ruby.RMW_Read.latency_hist_seqr::total       147391                      
system.ruby.RMW_Read.miss_latency_hist_seqr::bucket_size            1                      
system.ruby.RMW_Read.miss_latency_hist_seqr::max_bucket            9                      
system.ruby.RMW_Read.miss_latency_hist_seqr::samples        15737                      
system.ruby.RMW_Read.miss_latency_hist_seqr |       15737    100.00%    100.00% |           0      0.00%    100.00% |           0      0.00%    100.00% |           0      0.00%    100.00% |           0      0.00%    100.00% |           0      0.00%    100.00% |           0      0.00%    100.00% |           0      0.00%    100.00% |           0      0.00%    100.00% |           0      0.00%    100.00%
system.ruby.RMW_Read.miss_latency_hist_seqr::total        15737                      
system.ruby.ST.hit_latency_hist_seqr::bucket_size            1                      
system.ruby.ST.hit_latency_hist_seqr::max_bucket            9                      
system.ruby.ST.hit_latency_hist_seqr::samples     18529646                      
system.ruby.ST.hit_latency_hist_seqr     |    18529646    100.00%    100.00% |           0      0.00%    100.00% |           0      0.00%    100.00% |           0      0.00%    100.00% |           0      0.00%    100.00% |           0      0.00%    100.00% |           0      0.00%    100.00% |           0      0.00%    100.00% |           0      0.00%    100.00% |           0      0.00%    100.00%
system.ruby.ST.hit_latency_hist_seqr::total     18529646                      
system.ruby.ST.latency_hist_seqr::bucket_size            1                      
system.ruby.ST.latency_hist_seqr::max_bucket            9                      
system.ruby.ST.latency_hist_seqr::samples     18801159                      
system.ruby.ST.latency_hist_seqr         |    18801159    100.00%    100.00% |           0      0.00%    100.00% |           0      0.00%    100.00% |           0      0.00%    100.00% |           0      0.00%    100.00% |           0      0.00%    100.00% |           0      0.00%    100.00% |           0      0.00%    100.00% |           0      0.00%    100.00% |           0      0.00%    100.00%
system.ruby.ST.latency_hist_seqr::total      18801159                      
system.ruby.ST.miss_latency_hist_seqr::bucket_size            1                      
system.ruby.ST.miss_latency_hist_seqr::max_bucket            9                      
system.ruby.ST.miss_latency_hist_seqr::samples       271513                      
system.ruby.ST.miss_latency_hist_seqr    |      271513    100.00%    100.00% |           0      0.00%    100.00% |           0      0.00%    100.00% |           0      0.00%    100.00% |           0      0.00%    100.00% |           0      0.00%    100.00% |           0      0.00%    100.00% |           0      0.00%    100.00% |           0      0.00%    100.00% |           0      0.00%    100.00%
system.ruby.ST.miss_latency_hist_seqr::total       271513                      
system.ruby.dir_cntrl0.fwdFrom.avg_buf_msgs     0.023763                       # Average number of messages in buffer
system.ruby.dir_cntrl0.fwdFrom.avg_stall_time  2999.984130                       # Average number of cycles messages are stalled in this MB
system.ruby.dir_cntrl0.reqTo.avg_buf_msgs     0.008020                       # Average number of messages in buffer
system.ruby.dir_cntrl0.reqTo.avg_stall_time  5229.031146                       # Average number of cycles messages are stalled in this MB
system.ruby.dir_cntrl0.requestToMemory.avg_buf_msgs     0.005197                       # Average number of messages in buffer
system.ruby.dir_cntrl0.requestToMemory.avg_stall_time   499.999992                       # Average number of cycles messages are stalled in this MB
system.ruby.dir_cntrl0.respFrom.avg_buf_msgs     0.024226                       # Average number of messages in buffer
system.ruby.dir_cntrl0.respFrom.avg_stall_time  3005.354417                       # Average number of cycles messages are stalled in this MB
system.ruby.dir_cntrl0.respTo.avg_buf_msgs     0.000003                       # Average number of messages in buffer
system.ruby.dir_cntrl0.respTo.avg_stall_time 23932.813540                       # Average number of cycles messages are stalled in this MB
system.ruby.dir_cntrl0.responseFromMemory.avg_buf_msgs     0.005216                       # Average number of messages in buffer
system.ruby.dir_cntrl0.responseFromMemory.avg_stall_time   499.999843                       # Average number of cycles messages are stalled in this MB
system.ruby.dir_cntrl1.fwdFrom.avg_buf_msgs     0.023740                       # Average number of messages in buffer
system.ruby.dir_cntrl1.fwdFrom.avg_stall_time  2999.977225                       # Average number of cycles messages are stalled in this MB
system.ruby.dir_cntrl1.reqTo.avg_buf_msgs     0.008018                       # Average number of messages in buffer
system.ruby.dir_cntrl1.reqTo.avg_stall_time  5328.073690                       # Average number of cycles messages are stalled in this MB
system.ruby.dir_cntrl1.requestToMemory.avg_buf_msgs     0.005256                       # Average number of messages in buffer
system.ruby.dir_cntrl1.requestToMemory.avg_stall_time   499.999992                       # Average number of cycles messages are stalled in this MB
system.ruby.dir_cntrl1.respFrom.avg_buf_msgs     0.024210                       # Average number of messages in buffer
system.ruby.dir_cntrl1.respFrom.avg_stall_time  3004.358229                       # Average number of cycles messages are stalled in this MB
system.ruby.dir_cntrl1.respTo.avg_buf_msgs     0.000002                       # Average number of messages in buffer
system.ruby.dir_cntrl1.respTo.avg_stall_time 24609.456048                       # Average number of cycles messages are stalled in this MB
system.ruby.dir_cntrl1.responseFromMemory.avg_buf_msgs     0.005276                       # Average number of messages in buffer
system.ruby.dir_cntrl1.responseFromMemory.avg_stall_time   499.999843                       # Average number of cycles messages are stalled in this MB
system.ruby.dir_cntrl2.fwdFrom.avg_buf_msgs     0.023015                       # Average number of messages in buffer
system.ruby.dir_cntrl2.fwdFrom.avg_stall_time  2999.868963                       # Average number of cycles messages are stalled in this MB
system.ruby.dir_cntrl2.reqTo.avg_buf_msgs     0.007768                       # Average number of messages in buffer
system.ruby.dir_cntrl2.reqTo.avg_stall_time  5311.359386                       # Average number of cycles messages are stalled in this MB
system.ruby.dir_cntrl2.requestToMemory.avg_buf_msgs     0.005017                       # Average number of messages in buffer
system.ruby.dir_cntrl2.requestToMemory.avg_stall_time   499.998681                       # Average number of cycles messages are stalled in this MB
system.ruby.dir_cntrl2.respFrom.avg_buf_msgs     0.023510                       # Average number of messages in buffer
system.ruby.dir_cntrl2.respFrom.avg_stall_time  3005.471813                       # Average number of cycles messages are stalled in this MB
system.ruby.dir_cntrl2.respTo.avg_buf_msgs     0.000002                       # Average number of messages in buffer
system.ruby.dir_cntrl2.respTo.avg_stall_time 24633.335110                       # Average number of cycles messages are stalled in this MB
system.ruby.dir_cntrl2.responseFromMemory.avg_buf_msgs     0.005035                       # Average number of messages in buffer
system.ruby.dir_cntrl2.responseFromMemory.avg_stall_time   499.998532                       # Average number of cycles messages are stalled in this MB
system.ruby.dir_cntrl3.fwdFrom.avg_buf_msgs     0.023753                       # Average number of messages in buffer
system.ruby.dir_cntrl3.fwdFrom.avg_stall_time  2999.992133                       # Average number of cycles messages are stalled in this MB
system.ruby.dir_cntrl3.reqTo.avg_buf_msgs     0.008032                       # Average number of messages in buffer
system.ruby.dir_cntrl3.reqTo.avg_stall_time  5392.082602                       # Average number of cycles messages are stalled in this MB
system.ruby.dir_cntrl3.requestToMemory.avg_buf_msgs     0.005135                       # Average number of messages in buffer
system.ruby.dir_cntrl3.requestToMemory.avg_stall_time   499.999992                       # Average number of cycles messages are stalled in this MB
system.ruby.dir_cntrl3.respFrom.avg_buf_msgs     0.024221                       # Average number of messages in buffer
system.ruby.dir_cntrl3.respFrom.avg_stall_time  3005.149085                       # Average number of cycles messages are stalled in this MB
system.ruby.dir_cntrl3.respTo.avg_buf_msgs     0.000002                       # Average number of messages in buffer
system.ruby.dir_cntrl3.respTo.avg_stall_time 25209.081078                       # Average number of cycles messages are stalled in this MB
system.ruby.dir_cntrl3.responseFromMemory.avg_buf_msgs     0.005154                       # Average number of messages in buffer
system.ruby.dir_cntrl3.responseFromMemory.avg_stall_time   499.999843                       # Average number of cycles messages are stalled in this MB
system.ruby.dma_cntrl0.cache.demand_accesses            0                       # Number of cache demand accesses
system.ruby.dma_cntrl0.cache.demand_hits            0                       # Number of cache demand hits
system.ruby.dma_cntrl0.cache.demand_misses            0                       # Number of cache demand misses
system.ruby.dma_cntrl0.fully_busy_cycles        13591                       # cycles for which number of transistions == max transitions
system.ruby.dma_cntrl0.fwdFrom.avg_buf_msgs     0.000009                       # Average number of messages in buffer
system.ruby.dma_cntrl0.fwdFrom.avg_stall_time  8036.128641                       # Average number of cycles messages are stalled in this MB
system.ruby.dma_cntrl0.mandatoryQueue.avg_buf_msgs     0.001421                       # Average number of messages in buffer
system.ruby.dma_cntrl0.mandatoryQueue.avg_stall_time 345897.118342                       # Average number of cycles messages are stalled in this MB
system.ruby.dma_cntrl0.reqTo.avg_buf_msgs     0.002236                       # Average number of messages in buffer
system.ruby.dma_cntrl0.reqTo.avg_stall_time 14141.174628                       # Average number of cycles messages are stalled in this MB
system.ruby.dma_cntrl0.respFrom.avg_buf_msgs     0.000010                       # Average number of messages in buffer
system.ruby.dma_cntrl0.respFrom.avg_stall_time 143774.935062                       # Average number of cycles messages are stalled in this MB
system.ruby.dma_cntrl0.respTo.avg_buf_msgs     0.000000                       # Average number of messages in buffer
system.ruby.dma_cntrl0.respTo.avg_stall_time   761.839834                       # Average number of cycles messages are stalled in this MB
system.ruby.hit_latency_hist_seqr::bucket_size            1                      
system.ruby.hit_latency_hist_seqr::max_bucket            9                      
system.ruby.hit_latency_hist_seqr::samples    499730730                      
system.ruby.hit_latency_hist_seqr        |   499730730    100.00%    100.00% |           0      0.00%    100.00% |           0      0.00%    100.00% |           0      0.00%    100.00% |           0      0.00%    100.00% |           0      0.00%    100.00% |           0      0.00%    100.00% |           0      0.00%    100.00% |           0      0.00%    100.00% |           0      0.00%    100.00%
system.ruby.hit_latency_hist_seqr::total    499730730                      
system.ruby.io_controller.cache.demand_accesses            0                       # Number of cache demand accesses
system.ruby.io_controller.cache.demand_hits            0                       # Number of cache demand hits
system.ruby.io_controller.cache.demand_misses            0                       # Number of cache demand misses
system.ruby.l1_cntrl0.cache.demand_accesses            0                       # Number of cache demand accesses
system.ruby.l1_cntrl0.cache.demand_hits             0                       # Number of cache demand hits
system.ruby.l1_cntrl0.cache.demand_misses            0                       # Number of cache demand misses
system.ruby.l1_cntrl0.fully_busy_cycles             1                       # cycles for which number of transistions == max transitions
system.ruby.l1_cntrl0.fwdFrom.avg_buf_msgs     0.836998                       # Average number of messages in buffer
system.ruby.l1_cntrl0.fwdFrom.avg_stall_time  6486.980977                       # Average number of cycles messages are stalled in this MB
system.ruby.l1_cntrl0.mandatoryQueue.avg_buf_msgs     0.355093                       # Average number of messages in buffer
system.ruby.l1_cntrl0.mandatoryQueue.avg_stall_time  6543.220003                       # Average number of cycles messages are stalled in this MB
system.ruby.l1_cntrl0.reqTo.avg_buf_msgs     0.009189                       # Average number of messages in buffer
system.ruby.l1_cntrl0.reqTo.avg_stall_time   499.999997                       # Average number of cycles messages are stalled in this MB
system.ruby.l1_cntrl0.respFrom.avg_buf_msgs     0.004638                       # Average number of messages in buffer
system.ruby.l1_cntrl0.respFrom.avg_stall_time 16816.857330                       # Average number of cycles messages are stalled in this MB
system.ruby.l1_cntrl0.respTo.avg_buf_msgs     0.000022                       # Average number of messages in buffer
system.ruby.l1_cntrl0.respTo.avg_stall_time   569.392373                       # Average number of cycles messages are stalled in this MB
system.ruby.l1_cntrl1.cache.demand_accesses            0                       # Number of cache demand accesses
system.ruby.l1_cntrl1.cache.demand_hits             0                       # Number of cache demand hits
system.ruby.l1_cntrl1.cache.demand_misses            0                       # Number of cache demand misses
system.ruby.l1_cntrl1.fwdFrom.avg_buf_msgs     2.993422                       # Average number of messages in buffer
system.ruby.l1_cntrl1.fwdFrom.avg_stall_time  6529.988886                       # Average number of cycles messages are stalled in this MB
system.ruby.l1_cntrl1.mandatoryQueue.avg_buf_msgs     0.331526                       # Average number of messages in buffer
system.ruby.l1_cntrl1.mandatoryQueue.avg_stall_time  5519.094028                       # Average number of cycles messages are stalled in this MB
system.ruby.l1_cntrl1.reqTo.avg_buf_msgs     0.007407                       # Average number of messages in buffer
system.ruby.l1_cntrl1.reqTo.avg_stall_time   499.999997                       # Average number of cycles messages are stalled in this MB
system.ruby.l1_cntrl1.respFrom.avg_buf_msgs     0.003743                       # Average number of messages in buffer
system.ruby.l1_cntrl1.respFrom.avg_stall_time 16959.406471                       # Average number of cycles messages are stalled in this MB
system.ruby.l1_cntrl1.respTo.avg_buf_msgs     0.000017                       # Average number of messages in buffer
system.ruby.l1_cntrl1.respTo.avg_stall_time   522.174314                       # Average number of cycles messages are stalled in this MB
system.ruby.l1_cntrl2.cache.demand_accesses            0                       # Number of cache demand accesses
system.ruby.l1_cntrl2.cache.demand_hits             0                       # Number of cache demand hits
system.ruby.l1_cntrl2.cache.demand_misses            0                       # Number of cache demand misses
system.ruby.l1_cntrl2.fwdFrom.avg_buf_msgs     0.003765                       # Average number of messages in buffer
system.ruby.l1_cntrl2.fwdFrom.avg_stall_time  6498.858308                       # Average number of cycles messages are stalled in this MB
system.ruby.l1_cntrl2.mandatoryQueue.avg_buf_msgs     0.337068                       # Average number of messages in buffer
system.ruby.l1_cntrl2.mandatoryQueue.avg_stall_time  5600.658615                       # Average number of cycles messages are stalled in this MB
system.ruby.l1_cntrl2.reqTo.avg_buf_msgs     0.007581                       # Average number of messages in buffer
system.ruby.l1_cntrl2.reqTo.avg_stall_time   499.999997                       # Average number of cycles messages are stalled in this MB
system.ruby.l1_cntrl2.respFrom.avg_buf_msgs     0.003829                       # Average number of messages in buffer
system.ruby.l1_cntrl2.respFrom.avg_stall_time 16746.322228                       # Average number of cycles messages are stalled in this MB
system.ruby.l1_cntrl2.respTo.avg_buf_msgs     0.000016                       # Average number of messages in buffer
system.ruby.l1_cntrl2.respTo.avg_stall_time   526.702833                       # Average number of cycles messages are stalled in this MB
system.ruby.l1_cntrl3.cache.demand_accesses            0                       # Number of cache demand accesses
system.ruby.l1_cntrl3.cache.demand_hits             0                       # Number of cache demand hits
system.ruby.l1_cntrl3.cache.demand_misses            0                       # Number of cache demand misses
system.ruby.l1_cntrl3.fully_busy_cycles             1                       # cycles for which number of transistions == max transitions
system.ruby.l1_cntrl3.fwdFrom.avg_buf_msgs     0.460983                       # Average number of messages in buffer
system.ruby.l1_cntrl3.fwdFrom.avg_stall_time  6515.831231                       # Average number of cycles messages are stalled in this MB
system.ruby.l1_cntrl3.mandatoryQueue.avg_buf_msgs     0.332329                       # Average number of messages in buffer
system.ruby.l1_cntrl3.mandatoryQueue.avg_stall_time  5519.117466                       # Average number of cycles messages are stalled in this MB
system.ruby.l1_cntrl3.reqTo.avg_buf_msgs     0.007426                       # Average number of messages in buffer
system.ruby.l1_cntrl3.reqTo.avg_stall_time   499.999997                       # Average number of cycles messages are stalled in this MB
system.ruby.l1_cntrl3.respFrom.avg_buf_msgs     0.003751                       # Average number of messages in buffer
system.ruby.l1_cntrl3.respFrom.avg_stall_time 16836.043026                       # Average number of cycles messages are stalled in this MB
system.ruby.l1_cntrl3.respTo.avg_buf_msgs     0.000015                       # Average number of messages in buffer
system.ruby.l1_cntrl3.respTo.avg_stall_time   522.953316                       # Average number of cycles messages are stalled in this MB
system.ruby.latency_hist_seqr::bucket_size            1                      
system.ruby.latency_hist_seqr::max_bucket            9                      
system.ruby.latency_hist_seqr::samples      508743143                      
system.ruby.latency_hist_seqr            |   508743143    100.00%    100.00% |           0      0.00%    100.00% |           0      0.00%    100.00% |           0      0.00%    100.00% |           0      0.00%    100.00% |           0      0.00%    100.00% |           0      0.00%    100.00% |           0      0.00%    100.00% |           0      0.00%    100.00% |           0      0.00%    100.00%
system.ruby.latency_hist_seqr::total        508743143                      
system.ruby.miss_latency_hist_seqr::bucket_size            1                      
system.ruby.miss_latency_hist_seqr::max_bucket            9                      
system.ruby.miss_latency_hist_seqr::samples      9012413                      
system.ruby.miss_latency_hist_seqr       |     9012413    100.00%    100.00% |           0      0.00%    100.00% |           0      0.00%    100.00% |           0      0.00%    100.00% |           0      0.00%    100.00% |           0      0.00%    100.00% |           0      0.00%    100.00% |           0      0.00%    100.00% |           0      0.00%    100.00% |           0      0.00%    100.00%
system.ruby.miss_latency_hist_seqr::total      9012413                      
system.ruby.network.average_flit_latency    16.818290                      
system.ruby.network.average_flit_network_latency    12.487346                      
system.ruby.network.average_flit_queueing_latency     4.330944                      
system.ruby.network.average_flit_vnet_latency |   15.749121                       |    4.993250                       |    9.652295                       |         nan                       |         nan                       |         nan                       |         nan                       |         nan                      
system.ruby.network.average_flit_vqueue_latency |    6.025130                       |    6.000001                       |    1.122188                       |         nan                       |         nan                       |         nan                       |         nan                       |         nan                      
system.ruby.network.average_hops             0.994547                      
system.ruby.network.average_packet_latency    15.257561                      
system.ruby.network.average_packet_network_latency    11.714042                      
system.ruby.network.average_packet_queueing_latency     3.543520                      
system.ruby.network.average_packet_vnet_latency |   25.749642                       |    4.993250                       |    7.961165                       |         nan                       |         nan                       |         nan                       |         nan                       |         nan                      
system.ruby.network.average_packet_vqueue_latency |    6.022418                       |    6.000001                       |    1.070114                       |         nan                       |         nan                       |         nan                       |         nan                       |         nan                      
system.ruby.network.avg_link_utilization     0.436926                      
system.ruby.network.avg_vc_load          |    0.178312     40.81%     40.81% |    0.020968      4.80%     45.61% |    0.019986      4.57%     50.18% |    0.019978      4.57%     54.76% |    0.035244      8.07%     62.82% |    0.003961      0.91%     63.73% |    0.003930      0.90%     64.63% |    0.003929      0.90%     65.53% |    0.110685     25.33%     90.86% |    0.014736      3.37%     94.23% |    0.012650      2.90%     97.13% |    0.012547      2.87%    100.00% |           0      0.00%    100.00% |           0      0.00%    100.00% |           0      0.00%    100.00% |           0      0.00%    100.00% |           0      0.00%    100.00% |           0      0.00%    100.00% |           0      0.00%    100.00% |           0      0.00%    100.00% |           0      0.00%    100.00% |           0      0.00%    100.00% |           0      0.00%    100.00% |           0      0.00%    100.00% |           0      0.00%    100.00% |           0      0.00%    100.00% |           0      0.00%    100.00% |           0      0.00%    100.00% |           0      0.00%    100.00% |           0      0.00%    100.00% |           0      0.00%    100.00% |           0      0.00%    100.00%
system.ruby.network.avg_vc_load::total       0.436926                      
system.ruby.network.ext_in_link_utilization     82441964                      
system.ruby.network.ext_out_link_utilization     82441964                      
system.ruby.network.flit_network_latency |   710616593                       |    44335342                       |   274529390                       |           0                       |           0                       |           0                       |           0                       |           0                      
system.ruby.network.flit_queueing_latency |   271860091                       |    53274340                       |    31917128                       |           0                       |           0                       |           0                       |           0                       |           0                      
system.ruby.network.flits_injected       |    45121031     54.73%     54.73% |     8879055     10.77%     65.50% |    28441878     34.50%    100.00% |           0      0.00%    100.00% |           0      0.00%    100.00% |           0      0.00%    100.00% |           0      0.00%    100.00% |           0      0.00%    100.00%
system.ruby.network.flits_injected::total     82441964                      
system.ruby.network.flits_received       |    45121031     54.73%     54.73% |     8879055     10.77%     65.50% |    28441878     34.50%    100.00% |           0      0.00%    100.00% |           0      0.00%    100.00% |           0      0.00%    100.00% |           0      0.00%    100.00% |           0      0.00%    100.00%
system.ruby.network.flits_received::total     82441964                      
system.ruby.network.int_link_utilization     81992439                      
system.ruby.network.packet_network_latency |   232495552                       |    44335342                       |   142245556                       |           0                       |           0                       |           0                       |           0                       |           0                      
system.ruby.network.packet_queueing_latency |    54376891                       |    53274340                       |    19120180                       |           0                       |           0                       |           0                       |           0                       |           0                      
system.ruby.network.packets_injected     |     9029079     25.24%     25.24% |     8879055     24.82%     50.06% |    17867430     49.94%    100.00% |           0      0.00%    100.00% |           0      0.00%    100.00% |           0      0.00%    100.00% |           0      0.00%    100.00% |           0      0.00%    100.00%
system.ruby.network.packets_injected::total     35775564                      
system.ruby.network.packets_received     |     9029079     25.24%     25.24% |     8879055     24.82%     50.06% |    17867430     49.94%    100.00% |           0      0.00%    100.00% |           0      0.00%    100.00% |           0      0.00%    100.00% |           0      0.00%    100.00% |           0      0.00%    100.00%
system.ruby.network.packets_received::total     35775564                      
system.ruby.network.routers0.buffer_reads     43404224                      
system.ruby.network.routers0.buffer_writes     43404224                      
system.ruby.network.routers0.crossbar_activity     43404224                      
system.ruby.network.routers0.sw_input_arbiter_activity     43518093                      
system.ruby.network.routers0.sw_output_arbiter_activity     43404224                      
system.ruby.network.routers1.buffer_reads     40553065                      
system.ruby.network.routers1.buffer_writes     40553065                      
system.ruby.network.routers1.crossbar_activity     40553065                      
system.ruby.network.routers1.sw_input_arbiter_activity     40651784                      
system.ruby.network.routers1.sw_output_arbiter_activity     40553065                      
system.ruby.network.routers2.buffer_reads     40501259                      
system.ruby.network.routers2.buffer_writes     40501259                      
system.ruby.network.routers2.crossbar_activity     40501259                      
system.ruby.network.routers2.sw_input_arbiter_activity     40596324                      
system.ruby.network.routers2.sw_output_arbiter_activity     40501259                      
system.ruby.network.routers3.buffer_reads     39975855                      
system.ruby.network.routers3.buffer_writes     39975855                      
system.ruby.network.routers3.crossbar_activity     39975855                      
system.ruby.network.routers3.sw_input_arbiter_activity     40070643                      
system.ruby.network.routers3.sw_output_arbiter_activity     39975855                      
system.ruby.outstanding_req_hist_seqr::bucket_size            1                      
system.ruby.outstanding_req_hist_seqr::max_bucket            9                      
system.ruby.outstanding_req_hist_seqr::samples    508743145                      
system.ruby.outstanding_req_hist_seqr::mean     1.000000                      
system.ruby.outstanding_req_hist_seqr::gmean     1.000000                      
system.ruby.outstanding_req_hist_seqr::stdev     0.000172                      
system.ruby.outstanding_req_hist_seqr    |           0      0.00%      0.00% |   508743130    100.00%    100.00% |          15      0.00%    100.00% |           0      0.00%    100.00% |           0      0.00%    100.00% |           0      0.00%    100.00% |           0      0.00%    100.00% |           0      0.00%    100.00% |           0      0.00%    100.00% |           0      0.00%    100.00%
system.ruby.outstanding_req_hist_seqr::total    508743145                      
system.switch_cpus0.Branches                  5971919                       # Number of branches fetched
system.switch_cpus0.committedInsts           68898515                       # Number of instructions committed
system.switch_cpus0.committedOps            119850727                       # Number of ops (including micro ops) committed
system.switch_cpus0.dtb.rdAccesses           20396223                       # TLB accesses on read requests
system.switch_cpus0.dtb.rdMisses              1179598                       # TLB misses on read requests
system.switch_cpus0.dtb.wrAccesses            5998623                       # TLB accesses on write requests
system.switch_cpus0.dtb.wrMisses                 1228                       # TLB misses on write requests
system.switch_cpus0.idle_fraction            0.004131                       # Percentage of idle cycles
system.switch_cpus0.itb.rdAccesses                  0                       # TLB accesses on read requests
system.switch_cpus0.itb.rdMisses                    0                       # TLB misses on read requests
system.switch_cpus0.itb.wrAccesses           96863970                       # TLB accesses on write requests
system.switch_cpus0.itb.wrMisses                 3264                       # TLB misses on write requests
system.switch_cpus0.kern.inst.arm                   0                       # number of arm instructions executed
system.switch_cpus0.kern.inst.quiesce               0                       # number of quiesce instructions executed
system.switch_cpus0.not_idle_fraction        0.995869                       # Percentage of non-idle cycles
system.switch_cpus0.numCycles               565029589                       # number of cpu cycles simulated
system.switch_cpus0.numWorkItemsCompleted            0                       # number of work items this cpu completed
system.switch_cpus0.numWorkItemsStarted             0                       # number of work items this cpu started
system.switch_cpus0.num_busy_cycles      562695177.032888                       # Number of busy cycles
system.switch_cpus0.num_cc_register_reads     41894409                       # number of times the CC registers were read
system.switch_cpus0.num_cc_register_writes     38028251                       # number of times the CC registers were written
system.switch_cpus0.num_conditional_control_insts      4393632                       # number of instructions that are conditional controls
system.switch_cpus0.num_fp_alu_accesses      39461675                       # Number of float alu accesses
system.switch_cpus0.num_fp_insts             39461675                       # number of float instructions
system.switch_cpus0.num_fp_register_reads     72424947                       # number of times the floating registers were read
system.switch_cpus0.num_fp_register_writes     38223573                       # number of times the floating registers were written
system.switch_cpus0.num_func_calls            1197102                       # number of times a function call or return occured
system.switch_cpus0.num_idle_cycles      2334411.967112                       # Number of idle cycles
system.switch_cpus0.num_int_alu_accesses     85121868                       # Number of integer alu accesses
system.switch_cpus0.num_int_insts            85121868                       # number of integer instructions
system.switch_cpus0.num_int_register_reads    179594800                       # number of times the integer registers were read
system.switch_cpus0.num_int_register_writes     66466006                       # number of times the integer registers were written
system.switch_cpus0.num_load_insts           19216619                       # Number of load instructions
system.switch_cpus0.num_mem_refs             25214031                       # number of memory refs
system.switch_cpus0.num_store_insts           5997412                       # Number of store instructions
system.switch_cpus0.num_vec_alu_accesses            0                       # Number of vector alu accesses
system.switch_cpus0.num_vec_insts                   0                       # number of vector instructions
system.switch_cpus0.num_vec_register_reads            0                       # number of times the vector registers were read
system.switch_cpus0.num_vec_register_writes            0                       # number of times the vector registers were written
system.switch_cpus0.op_class::No_OpClass       406816      0.34%      0.34% # Class of executed instruction
system.switch_cpus0.op_class::IntAlu         59772040     49.87%     50.21% # Class of executed instruction
system.switch_cpus0.op_class::IntMult            7813      0.01%     50.22% # Class of executed instruction
system.switch_cpus0.op_class::IntDiv            17991      0.02%     50.23% # Class of executed instruction
system.switch_cpus0.op_class::FloatAdd         868395      0.72%     50.96% # Class of executed instruction
system.switch_cpus0.op_class::FloatCmp              0      0.00%     50.96% # Class of executed instruction
system.switch_cpus0.op_class::FloatCvt            304      0.00%     50.96% # Class of executed instruction
system.switch_cpus0.op_class::FloatMult             0      0.00%     50.96% # Class of executed instruction
system.switch_cpus0.op_class::FloatMultAcc            0      0.00%     50.96% # Class of executed instruction
system.switch_cpus0.op_class::FloatDiv              0      0.00%     50.96% # Class of executed instruction
system.switch_cpus0.op_class::FloatMisc             0      0.00%     50.96% # Class of executed instruction
system.switch_cpus0.op_class::FloatSqrt             0      0.00%     50.96% # Class of executed instruction
system.switch_cpus0.op_class::SimdAdd          202748      0.17%     51.13% # Class of executed instruction
system.switch_cpus0.op_class::SimdAddAcc            0      0.00%     51.13% # Class of executed instruction
system.switch_cpus0.op_class::SimdAlu        18905069     15.77%     66.90% # Class of executed instruction
system.switch_cpus0.op_class::SimdCmp               0      0.00%     66.90% # Class of executed instruction
system.switch_cpus0.op_class::SimdCvt             512      0.00%     66.90% # Class of executed instruction
system.switch_cpus0.op_class::SimdMisc        4366225      3.64%     70.54% # Class of executed instruction
system.switch_cpus0.op_class::SimdMult              0      0.00%     70.54% # Class of executed instruction
system.switch_cpus0.op_class::SimdMultAcc            0      0.00%     70.54% # Class of executed instruction
system.switch_cpus0.op_class::SimdShift        203043      0.17%     70.71% # Class of executed instruction
system.switch_cpus0.op_class::SimdShiftAcc            0      0.00%     70.71% # Class of executed instruction
system.switch_cpus0.op_class::SimdDiv               0      0.00%     70.71% # Class of executed instruction
system.switch_cpus0.op_class::SimdSqrt              0      0.00%     70.71% # Class of executed instruction
system.switch_cpus0.op_class::SimdFloatAdd      4801940      4.01%     74.72% # Class of executed instruction
system.switch_cpus0.op_class::SimdFloatAlu            0      0.00%     74.72% # Class of executed instruction
system.switch_cpus0.op_class::SimdFloatCmp            0      0.00%     74.72% # Class of executed instruction
system.switch_cpus0.op_class::SimdFloatCvt      4451150      3.71%     78.43% # Class of executed instruction
system.switch_cpus0.op_class::SimdFloatDiv        71311      0.06%     78.49% # Class of executed instruction
[...]
system.mem_ctrls1.llc.tags.age_task_id_blocks_1024::1           69                       # Occupied blocks per task id
system.mem_ctrls1.llc.tags.age_task_id_blocks_1024::2           76                       # Occupied blocks per task id
system.mem_ctrls1.llc.tags.age_task_id_blocks_1024::3          741                       # Occupied blocks per task id
system.mem_ctrls1.llc.tags.age_task_id_blocks_1024::4       115890                       # Occupied blocks per task id
system.mem_ctrls1.llc.tags.occ_task_id_percent::1024     0.445492                       # Percentage of cache occupancy per task id
system.mem_ctrls1.llc.tags.tag_accesses      47636447                       # Number of tag accesses
system.mem_ctrls1.llc.tags.data_accesses      2969979                       # Number of data accesses
system.mem_ctrls1.llc.tags.power_state.pwrStateResidencyTicks::UNDEFINED 101164882152501                       # Cumulative time (in ticks) in various power states
system.mem_ctrls1.rank1.actEnergy           400960980                       # Energy for activate commands per rank (pJ)
system.mem_ctrls1.rank1.preEnergy           213112020                       # Energy for precharge commands per rank (pJ)
system.mem_ctrls1.rank1.readEnergy          413291760                       # Energy for read commands per rank (pJ)
system.mem_ctrls1.rank1.writeEnergy                 0                       # Energy for write commands per rank (pJ)
system.mem_ctrls1.rank1.refreshEnergy    22300983120.000004                       # Energy for refresh commands per rank (pJ)
system.mem_ctrls1.rank1.actBackEnergy     53830166730                       # Energy for active background per rank (pJ)
system.mem_ctrls1.rank1.preBackEnergy     63154488480                       # Energy for precharge background per rank (pJ)
system.mem_ctrls1.rank1.actPowerDownEnergy            0                       # Energy for active power-down per rank (pJ)
system.mem_ctrls1.rank1.prePowerDownEnergy            0                       # Energy for precharge power-down per rank (pJ)
system.mem_ctrls1.rank1.selfRefreshEnergy            0                       # Energy for self refresh per rank (pJ)
system.mem_ctrls1.rank1.totalEnergy      140313003090                       # Total energy per rank (pJ)
system.mem_ctrls1.rank1.averagePower       496.656967                       # Core power per rank (mW)
system.mem_ctrls1.rank1.totalIdleTime               0                       # Total Idle time Per DRAM Rank
system.mem_ctrls1.rank1.memoryStateTime::IDLE 163647983000                       # Time in different power states
system.mem_ctrls1.rank1.memoryStateTime::REF   9433580000                       # Time in different power states
system.mem_ctrls1.rank1.memoryStateTime::SREF            0                       # Time in different power states
system.mem_ctrls1.rank1.memoryStateTime::PRE_PDN            0                       # Time in different power states
system.mem_ctrls1.rank1.memoryStateTime::ACT 109433356501                       # Time in different power states
system.mem_ctrls1.rank1.memoryStateTime::ACT_PDN            0                       # Time in different power states
system.mem_ctrls1.rank0.actEnergy           409907400                       # Energy for activate commands per rank (pJ)
system.mem_ctrls1.rank0.preEnergy           217867155                       # Energy for precharge commands per rank (pJ)
system.mem_ctrls1.rank0.readEnergy          420538860                       # Energy for read commands per rank (pJ)
system.mem_ctrls1.rank0.writeEnergy                 0                       # Energy for write commands per rank (pJ)
system.mem_ctrls1.rank0.refreshEnergy    22300983120.000004                       # Energy for refresh commands per rank (pJ)
system.mem_ctrls1.rank0.actBackEnergy     53955670470                       # Energy for active background per rank (pJ)
system.mem_ctrls1.rank0.preBackEnergy     63049369440                       # Energy for precharge background per rank (pJ)
system.mem_ctrls1.rank0.actPowerDownEnergy            0                       # Energy for active power-down per rank (pJ)
system.mem_ctrls1.rank0.prePowerDownEnergy            0                       # Energy for precharge power-down per rank (pJ)
system.mem_ctrls1.rank0.selfRefreshEnergy            0                       # Energy for self refresh per rank (pJ)
system.mem_ctrls1.rank0.totalEnergy      140354336445                       # Total energy per rank (pJ)
system.mem_ctrls1.rank0.averagePower       496.803272                       # Core power per rank (mW)
system.mem_ctrls1.rank0.totalIdleTime               0                       # Total Idle time Per DRAM Rank
system.mem_ctrls1.rank0.memoryStateTime::IDLE 163371969752                       # Time in different power states
system.mem_ctrls1.rank0.memoryStateTime::REF   9433580000                       # Time in different power states
system.mem_ctrls1.rank0.memoryStateTime::SREF            0                       # Time in different power states
system.mem_ctrls1.rank0.memoryStateTime::PRE_PDN            0                       # Time in different power states
system.mem_ctrls1.rank0.memoryStateTime::ACT 109709369749                       # Time in different power states
system.mem_ctrls1.rank0.memoryStateTime::ACT_PDN            0                       # Time in different power states
system.mem_ctrls1.power_state.pwrStateResidencyTicks::UNDEFINED 101164882152501                       # Cumulative time (in ticks) in various power states
system.cpu_voltage_domain.voltage                   1                       # Voltage in Volts
system.iobus.trans_dist::ReadReq                  397                       # Transaction distribution
system.iobus.trans_dist::ReadResp                 397                       # Transaction distribution
system.iobus.trans_dist::WriteReq                1859                       # Transaction distribution
system.iobus.trans_dist::WriteResp               1859                       # Transaction distribution
system.iobus.pkt_count_system.pc.south_bridge.io_apic.int_master::system.ruby.l1_cntrl1.sequencer.pio-slave-port          178                       # Packet count per connected master and slave (bytes)
system.iobus.pkt_count_system.pc.south_bridge.io_apic.int_master::total          178                       # Packet count per connected master and slave (bytes)
system.iobus.pkt_count_system.ruby.l1_cntrl0.sequencer.mem-master-port::system.ruby.l1_cntrl0.sequencer.pio-slave-port         1174                       # Packet count per connected master and slave (bytes)
system.iobus.pkt_count_system.ruby.l1_cntrl0.sequencer.mem-master-port::system.ruby.l1_cntrl1.sequencer.pio-slave-port           66                       # Packet count per connected master and slave (bytes)
system.iobus.pkt_count_system.ruby.l1_cntrl0.sequencer.mem-master-port::system.ruby.l1_cntrl2.sequencer.pio-slave-port           64                       # Packet count per connected master and slave (bytes)
system.iobus.pkt_count_system.ruby.l1_cntrl0.sequencer.mem-master-port::system.ruby.l1_cntrl3.sequencer.pio-slave-port           70                       # Packet count per connected master and slave (bytes)
system.iobus.pkt_count_system.ruby.l1_cntrl0.sequencer.mem-master-port::total         1374                       # Packet count per connected master and slave (bytes)
system.iobus.pkt_count_system.ruby.l1_cntrl1.sequencer.mem-master-port::system.pc.south_bridge.ide.pio           48                       # Packet count per connected master and slave (bytes)
system.iobus.pkt_count_system.ruby.l1_cntrl1.sequencer.mem-master-port::system.pc.com_1.pio          656                       # Packet count per connected master and slave (bytes)
system.iobus.pkt_count_system.ruby.l1_cntrl1.sequencer.mem-master-port::system.ruby.l1_cntrl0.sequencer.pio-slave-port            2                       # Packet count per connected master and slave (bytes)
system.iobus.pkt_count_system.ruby.l1_cntrl1.sequencer.mem-master-port::system.ruby.l1_cntrl1.sequencer.pio-slave-port          692                       # Packet count per connected master and slave (bytes)
system.iobus.pkt_count_system.ruby.l1_cntrl1.sequencer.mem-master-port::system.ruby.l1_cntrl2.sequencer.pio-slave-port            6                       # Packet count per connected master and slave (bytes)
system.iobus.pkt_count_system.ruby.l1_cntrl1.sequencer.mem-master-port::system.ruby.l1_cntrl3.sequencer.pio-slave-port            2                       # Packet count per connected master and slave (bytes)
system.iobus.pkt_count_system.ruby.l1_cntrl1.sequencer.mem-master-port::total         1406                       # Packet count per connected master and slave (bytes)
system.iobus.pkt_count_system.ruby.l1_cntrl2.sequencer.mem-master-port::system.pc.south_bridge.ide.pio          102                       # Packet count per connected master and slave (bytes)
system.iobus.pkt_count_system.ruby.l1_cntrl2.sequencer.mem-master-port::system.pc.com_1.pio           10                       # Packet count per connected master and slave (bytes)
system.iobus.pkt_count_system.ruby.l1_cntrl2.sequencer.mem-master-port::system.ruby.l1_cntrl0.sequencer.pio-slave-port            6                       # Packet count per connected master and slave (bytes)
system.iobus.pkt_count_system.ruby.l1_cntrl2.sequencer.mem-master-port::system.ruby.l1_cntrl1.sequencer.pio-slave-port           10                       # Packet count per connected master and slave (bytes)
system.iobus.pkt_count_system.ruby.l1_cntrl2.sequencer.mem-master-port::system.ruby.l1_cntrl2.sequencer.pio-slave-port          688                       # Packet count per connected master and slave (bytes)
system.iobus.pkt_count_system.ruby.l1_cntrl2.sequencer.mem-master-port::system.ruby.l1_cntrl3.sequencer.pio-slave-port            8                       # Packet count per connected master and slave (bytes)
system.iobus.pkt_count_system.ruby.l1_cntrl2.sequencer.mem-master-port::total          824                       # Packet count per connected master and slave (bytes)
system.iobus.pkt_count_system.ruby.l1_cntrl3.sequencer.mem-master-port::system.pc.south_bridge.ide.pio           34                       # Packet count per connected master and slave (bytes)
system.iobus.pkt_count_system.ruby.l1_cntrl3.sequencer.mem-master-port::system.pc.com_1.pio            6                       # Packet count per connected master and slave (bytes)
system.iobus.pkt_count_system.ruby.l1_cntrl3.sequencer.mem-master-port::system.ruby.l1_cntrl0.sequencer.pio-slave-port            6                       # Packet count per connected master and slave (bytes)
system.iobus.pkt_count_system.ruby.l1_cntrl3.sequencer.mem-master-port::system.ruby.l1_cntrl1.sequencer.pio-slave-port            4                       # Packet count per connected master and slave (bytes)
system.iobus.pkt_count_system.ruby.l1_cntrl3.sequencer.mem-master-port::system.ruby.l1_cntrl2.sequencer.pio-slave-port            8                       # Packet count per connected master and slave (bytes)
system.iobus.pkt_count_system.ruby.l1_cntrl3.sequencer.mem-master-port::system.ruby.l1_cntrl3.sequencer.pio-slave-port          672                       # Packet count per connected master and slave (bytes)
system.iobus.pkt_count_system.ruby.l1_cntrl3.sequencer.mem-master-port::total          730                       # Packet count per connected master and slave (bytes)
system.iobus.pkt_count::total                    4512                       # Packet count per connected master and slave (bytes)
system.iobus.pkt_size_system.pc.south_bridge.io_apic.int_master::system.ruby.l1_cntrl1.sequencer.pio-slave-port          356                       # Cumulative packet size per connected master and slave (bytes)
system.iobus.pkt_size_system.pc.south_bridge.io_apic.int_master::total          356                       # Cumulative packet size per connected master and slave (bytes)
system.iobus.pkt_size_system.ruby.l1_cntrl0.sequencer.mem-master-port::system.ruby.l1_cntrl0.sequencer.pio-slave-port         2348                       # Cumulative packet size per connected master and slave (bytes)
system.iobus.pkt_size_system.ruby.l1_cntrl0.sequencer.mem-master-port::system.ruby.l1_cntrl1.sequencer.pio-slave-port          132                       # Cumulative packet size per connected master and slave (bytes)
system.iobus.pkt_size_system.ruby.l1_cntrl0.sequencer.mem-master-port::system.ruby.l1_cntrl2.sequencer.pio-slave-port          128                       # Cumulative packet size per connected master and slave (bytes)
system.iobus.pkt_size_system.ruby.l1_cntrl0.sequencer.mem-master-port::system.ruby.l1_cntrl3.sequencer.pio-slave-port          140                       # Cumulative packet size per connected master and slave (bytes)
system.iobus.pkt_size_system.ruby.l1_cntrl0.sequencer.mem-master-port::total         2748                       # Cumulative packet size per connected master and slave (bytes)
system.iobus.pkt_size_system.ruby.l1_cntrl1.sequencer.mem-master-port::system.pc.south_bridge.ide.pio           24                       # Cumulative packet size per connected master and slave (bytes)
system.iobus.pkt_size_system.ruby.l1_cntrl1.sequencer.mem-master-port::system.pc.com_1.pio          328                       # Cumulative packet size per connected master and slave (bytes)
system.iobus.pkt_size_system.ruby.l1_cntrl1.sequencer.mem-master-port::system.ruby.l1_cntrl0.sequencer.pio-slave-port            4                       # Cumulative packet size per connected master and slave (bytes)
system.iobus.pkt_size_system.ruby.l1_cntrl1.sequencer.mem-master-port::system.ruby.l1_cntrl1.sequencer.pio-slave-port         1384                       # Cumulative packet size per connected master and slave (bytes)
system.iobus.pkt_size_system.ruby.l1_cntrl1.sequencer.mem-master-port::system.ruby.l1_cntrl2.sequencer.pio-slave-port           12                       # Cumulative packet size per connected master and slave (bytes)
system.iobus.pkt_size_system.ruby.l1_cntrl1.sequencer.mem-master-port::system.ruby.l1_cntrl3.sequencer.pio-slave-port            4                       # Cumulative packet size per connected master and slave (bytes)
system.iobus.pkt_size_system.ruby.l1_cntrl1.sequencer.mem-master-port::total         1756                       # Cumulative packet size per connected master and slave (bytes)
system.iobus.pkt_size_system.ruby.l1_cntrl2.sequencer.mem-master-port::system.pc.south_bridge.ide.pio           60                       # Cumulative packet size per connected master and slave (bytes)
system.iobus.pkt_size_system.ruby.l1_cntrl2.sequencer.mem-master-port::system.pc.com_1.pio            5                       # Cumulative packet size per connected master and slave (bytes)
system.iobus.pkt_size_system.ruby.l1_cntrl2.sequencer.mem-master-port::system.ruby.l1_cntrl0.sequencer.pio-slave-port           12                       # Cumulative packet size per connected master and slave (bytes)
system.iobus.pkt_size_system.ruby.l1_cntrl2.sequencer.mem-master-port::system.ruby.l1_cntrl1.sequencer.pio-slave-port           20                       # Cumulative packet size per connected master and slave (bytes)
system.iobus.pkt_size_system.ruby.l1_cntrl2.sequencer.mem-master-port::system.ruby.l1_cntrl2.sequencer.pio-slave-port         1376                       # Cumulative packet size per connected master and slave (bytes)
system.iobus.pkt_size_system.ruby.l1_cntrl2.sequencer.mem-master-port::system.ruby.l1_cntrl3.sequencer.pio-slave-port           16                       # Cumulative packet size per connected master and slave (bytes)
system.iobus.pkt_size_system.ruby.l1_cntrl2.sequencer.mem-master-port::total         1489                       # Cumulative packet size per connected master and slave (bytes)
system.iobus.pkt_size_system.ruby.l1_cntrl3.sequencer.mem-master-port::system.pc.south_bridge.ide.pio           20                       # Cumulative packet size per connected master and slave (bytes)
system.iobus.pkt_size_system.ruby.l1_cntrl3.sequencer.mem-master-port::system.pc.com_1.pio            3                       # Cumulative packet size per connected master and slave (bytes)
system.iobus.pkt_size_system.ruby.l1_cntrl3.sequencer.mem-master-port::system.ruby.l1_cntrl0.sequencer.pio-slave-port           12                       # Cumulative packet size per connected master and slave (bytes)
system.iobus.pkt_size_system.ruby.l1_cntrl3.sequencer.mem-master-port::system.ruby.l1_cntrl1.sequencer.pio-slave-port            8                       # Cumulative packet size per connected master and slave (bytes)
system.iobus.pkt_size_system.ruby.l1_cntrl3.sequencer.mem-master-port::system.ruby.l1_cntrl2.sequencer.pio-slave-port           16                       # Cumulative packet size per connected master and slave (bytes)
system.iobus.pkt_size_system.ruby.l1_cntrl3.sequencer.mem-master-port::system.ruby.l1_cntrl3.sequencer.pio-slave-port         1344                       # Cumulative packet size per connected master and slave (bytes)
system.iobus.pkt_size_system.ruby.l1_cntrl3.sequencer.mem-master-port::total         1403                       # Cumulative packet size per connected master and slave (bytes)
system.iobus.pkt_size::total                     7752                       # Cumulative packet size per connected master and slave (bytes)
system.iobus.reqLayer2.occupancy               154500                       # Layer occupancy (ticks)
system.iobus.reqLayer2.utilization                0.0                       # Layer utilization (%)
system.iobus.power_state.pwrStateResidencyTicks::UNDEFINED 101164882152501                       # Cumulative time (in ticks) in various power states
system.iobus.reqLayer19.occupancy              939704                       # Layer occupancy (ticks)
system.iobus.reqLayer19.utilization               0.0                       # Layer utilization (%)
system.iobus.reqLayer17.occupancy             1268680                       # Layer occupancy (ticks)
system.iobus.reqLayer17.utilization               0.0                       # Layer utilization (%)
system.iobus.reqLayer12.occupancy              433500                       # Layer occupancy (ticks)
system.iobus.reqLayer12.utilization               0.0                       # Layer utilization (%)
system.iobus.reqLayer18.occupancy             1126198                       # Layer occupancy (ticks)
system.iobus.reqLayer18.utilization               0.0                       # Layer utilization (%)
system.iobus.respLayer9.occupancy              542000                       # Layer occupancy (ticks)
system.iobus.respLayer9.utilization               0.0                       # Layer utilization (%)
system.iobus.respLayer5.occupancy             1142000                       # Layer occupancy (ticks)
system.iobus.respLayer5.utilization               0.0                       # Layer utilization (%)
system.iobus.respLayer7.occupancy              605000                       # Layer occupancy (ticks)
system.iobus.respLayer7.utilization               0.0                       # Layer utilization (%)
system.iobus.respLayer0.occupancy              130996                       # Layer occupancy (ticks)
system.iobus.respLayer0.utilization               0.0                       # Layer utilization (%)
system.iobus.respLayer3.occupancy             1079500                       # Layer occupancy (ticks)
system.iobus.respLayer3.utilization               0.0                       # Layer utilization (%)
system.iobus.reqLayer20.occupancy              931200                       # Layer occupancy (ticks)
system.iobus.reqLayer20.utilization               0.0                       # Layer utilization (%)

---------- End Simulation Statistics   ----------
